*SPEF "IEEE 1481-1998"
*DESIGN "s1494_bench"
*DATE "Wed Feb 18 23:59:23 2026"
*VENDOR "Cadence Design Systems, Inc."
*PROGRAM "Innovus"
*VERSION "21.39-s058_1"
*DESIGN_FLOW "COUPLING C" "PIN_CAP NONE" "NAME_SCOPE LOCAL"
*DIVIDER /
*DELIMITER :
*BUS_DELIMITER []
*T_UNIT 1 NS
*C_UNIT 1 PF
*R_UNIT 1 OHM
*L_UNIT 1 HENRY

// MMMC spef file for corner '_default_rc_corner_'

*NAME_MAP

*1 blif_clk_net
*2 blif_reset_net
*3 CLR
*4 v6
*5 v5
*6 v4
*7 v3
*8 v2
*9 v1
*10 v0
*11 v13_D_24
*12 v13_D_23
*13 v13_D_22
*14 v13_D_21
*15 v13_D_20
*16 v13_D_19
*17 v13_D_18
*18 v13_D_17
*19 v13_D_16
*20 v13_D_15
*21 v13_D_14
*22 v13_D_13
*23 v13_D_12
*24 v13_D_11
*25 v13_D_10
*26 v13_D_9
*27 v13_D_8
*28 v13_D_7
*29 v13_D_6
*30 n_0
*31 n_1
*32 n_2
*33 n_3
*34 n_4
*35 n_5
*36 n_6
*37 n_7
*38 n_8
*39 n_9
*40 n_10
*41 n_11
*42 n_12
*43 n_13
*44 n_14
*45 n_15
*46 n_16
*47 n_17
*48 n_18
*49 n_19
*50 n_20
*51 n_21
*52 n_22
*53 n_23
*54 n_24
*55 n_25
*56 n_26
*57 n_27
*58 n_28
*59 n_29
*60 n_30
*61 n_31
*62 n_32
*63 n_33
*64 n_34
*65 n_35
*66 n_36
*67 n_37
*68 n_38
*69 n_39
*70 n_40
*71 n_41
*72 n_42
*73 n_43
*74 n_44
*75 n_45
*76 n_46
*77 n_47
*78 n_48
*79 n_49
*80 n_50
*81 n_51
*82 n_52
*83 n_53
*84 n_54
*85 n_55
*86 n_56
*87 n_57
*88 n_58
*89 n_59
*90 n_60
*91 n_61
*92 n_62
*93 n_63
*94 n_64
*95 n_65
*96 n_66
*97 n_67
*98 n_68
*99 n_69
*100 n_70
*101 n_71
*102 n_72
*103 n_73
*104 n_74
*105 n_75
*106 n_76
*107 n_77
*108 n_78
*109 n_79
*110 n_80
*111 n_81
*112 n_82
*113 n_83
*114 n_84
*115 n_85
*116 n_86
*117 n_87
*118 n_88
*119 n_89
*120 n_90
*121 n_91
*122 n_92
*123 n_93
*124 n_94
*125 n_95
*126 n_96
*127 n_97
*128 n_98
*129 n_99
*130 n_100
*131 n_101
*132 n_102
*133 n_103
*134 n_104
*135 n_106
*136 n_107
*137 n_108
*138 n_109
*139 n_110
*140 n_111
*141 n_112
*142 n_113
*143 n_114
*144 n_115
*145 n_116
*146 n_117
*147 n_118
*148 n_119
*149 n_120
*150 n_121
*151 n_122
*152 n_123
*153 n_124
*154 n_125
*155 n_126
*156 n_127
*157 n_128
*158 n_129
*159 n_130
*160 n_131
*161 n_132
*162 n_133
*163 n_134
*164 n_135
*165 n_136
*166 n_137
*167 n_138
*168 n_139
*169 n_140
*170 n_141
*171 n_142
*172 n_143
*173 n_144
*174 n_145
*175 n_146
*176 n_147
*177 n_148
*178 n_149
*179 n_150
*180 n_151
*181 n_152
*182 n_153
*183 n_154
*184 n_155
*185 n_156
*186 n_157
*187 n_158
*188 n_159
*189 n_160
*190 n_161
*191 n_162
*192 n_163
*193 n_164
*194 n_165
*195 n_166
*196 n_167
*197 n_168
*198 n_169
*199 n_170
*200 n_171
*201 n_172
*202 n_173
*203 n_174
*204 n_175
*205 n_176
*206 n_177
*207 n_179
*208 n_181
*209 n_182
*210 n_183
*211 n_184
*212 n_185
*213 n_186
*214 n_187
*215 n_188
*216 n_189
*217 n_190
*218 n_191
*219 n_192
*220 n_193
*221 n_194
*222 n_195
*223 n_196
*224 n_197
*225 n_198
*226 n_199
*227 n_200
*228 n_201
*229 n_202
*230 n_203
*231 n_204
*232 n_205
*233 n_206
*234 n_207
*235 n_208
*236 n_209
*237 n_210
*238 n_211
*239 n_212
*240 n_213
*241 n_215
*242 n_216
*243 n_217
*244 n_218
*245 n_219
*246 n_220
*247 n_221
*248 n_222
*249 n_223
*250 n_224
*251 n_225
*252 n_226
*253 n_227
*254 n_228
*255 n_229
*256 n_230
*257 n_231
*258 n_232
*259 n_233
*260 n_234
*261 n_235
*262 n_237
*263 n_238
*264 n_240
*265 n_241
*266 n_242
*267 n_243
*268 n_244
*269 n_245
*270 n_246
*271 n_247
*272 n_248
*273 n_249
*274 n_250
*275 n_251
*276 n_252
*277 n_253
*278 n_254
*279 n_255
*280 n_256
*281 n_257
*282 n_258
*283 n_259
*284 n_260
*285 n_261
*286 n_262
*287 n_263
*288 n_266
*289 n_267
*290 n_268
*291 n_269
*292 n_270
*293 n_271
*294 n_272
*295 n_273
*296 n_274
*297 n_275
*298 n_276
*299 n_277
*300 n_278
*301 n_279
*302 n_280
*303 n_281
*304 n_284
*305 n_285
*306 n_286
*307 n_287
*308 n_288
*309 n_290
*310 n_292
*311 n_294
*312 n_296
*313 n_298
*314 n_300
*315 n_301
*316 n_302
*317 n_303
*318 n_304
*319 n_305
*320 n_307
*321 n_310
*322 n_311
*323 n_312
*324 n_313
*325 v7
*326 v8
*327 v9
*328 v10
*329 v11
*330 v12
*331 v8_reg
*332 v11_reg
*333 v9_reg
*334 v12_reg
*335 g6984
*336 v7_reg
*337 g6988
*338 g6987
*339 v10_reg
*340 g6998
*341 g6992
*342 g6989
*343 g6995
*344 g6990
*345 g6993
*346 g6999
*347 g7000
*348 g7002
*349 g7003
*350 g7012
*351 g7004
*352 g6997
*353 g6994
*354 g7013
*355 g7014
*356 g6996
*357 g7006
*358 g7018
*359 g7027
*360 g7008
*361 g7005
*362 g7007
*363 g7054
*364 g6991
*365 g7021
*366 g7065
*367 g7068
*368 g7025
*369 g7026
*370 g7080
*371 g7033
*372 g7029
*373 g7017
*374 g7010
*375 g7015
*376 g7016
*377 g7019
*378 g7020
*379 g7022
*380 g7023
*381 g7066
*382 g7024
*383 g7069
*384 g7028
*385 g7001
*386 g7031
*387 g7081
*388 g7034
*389 g7032
*390 g7009
*391 g7040
*392 g7011
*393 g7044
*394 g7049
*395 g7052
*396 g7061
*397 g7072
*398 g7078
*399 g7082
*400 g7035
*401 g7037
*402 g7048
*403 g7039
*404 g7100
*405 g7041
*406 g7107
*407 g7042
*408 g7043
*409 g7045
*410 g7047
*411 g7057
*412 g7064
*413 g7073
*414 g7076
*415 g7077
*416 g7030
*417 g7084
*418 g7085
*419 g7086
*420 g7087
*421 g7036
*422 g7063
*423 g7038
*424 g7101
*425 g7103
*426 g7105
*427 g7108
*428 g7118
*429 g7046
*430 g7051
*431 g7058
*432 g7062
*433 g7067
*434 g7070
*435 g7071
*436 g7074
*437 g7079
*438 g7083
*439 g7088
*440 g7091
*441 g7097
*442 g7099
*443 g7104
*444 g7106
*445 g7110
*446 g7111
*447 g7114
*448 g7116
*449 g7117
*450 g7123
*451 g7055
*452 g7056
*453 g7158
*454 g7059
*455 g7164
*456 g7060
*457 g7092
*458 g7075
*459 g7089
*460 g7093
*461 g7090
*462 g7095
*463 g7096
*464 g7098
*465 g7120
*466 g7109
*467 g7112
*468 g7113
*469 g7115
*470 g7121
*471 g7122
*472 g7130
*473 g7050
*474 g7132
*475 g7133
*476 g7136
*477 g7141
*478 g7142
*479 g7147
*480 g7159
*481 g7161
*482 g7162
*483 g7166
*484 g7167
*485 g7173
*486 g7200
*487 g7215
*488 g7094
*489 g7102
*490 g7119
*491 g7126
*492 g7128
*493 g7129
*494 g7131
*495 g7134
*496 g7137
*497 g7138
*498 g7139
*499 g7143
*500 g7144
*501 g7146
*502 g7148
*503 g7149
*504 g7151
*505 g7156
*506 g7160
*507 g7165
*508 g7168
*509 g7169
*510 g7170
*511 g7172
*512 g7182
*513 g7190
*514 g7227
*515 g7192
*516 g7196
*517 g7205
*518 g7208
*519 g7211
*520 g7212
*521 g7214
*522 g7216
*523 g7223
*524 g7224
*525 g7226
*526 g7229
*527 g7218
*528 g7177
*529 g7157
*530 g7155
*531 g7150
*532 g7206
*533 g7124
*534 g7125
*535 g7127
*536 g7053
*537 g7145
*538 g7140
*539 g7202
*540 g7153
*541 g7154
*542 g7201
*543 g7135
*544 g7163
*545 g7171
*546 g7174
*547 g7176
*548 g7178
*549 g7183
*550 g7184
*551 g7198
*552 g7186
*553 g7188
*554 g7194
*555 g7197
*556 g7203
*557 g7204
*558 g7193
*559 g7221
*560 g7222
*561 g7225
*562 g7228
*563 g7231
*564 g7191
*565 g7219
*566 g7217
*567 g7213
*568 g7210
*569 g7209
*570 g7207
*571 g7152
*572 g7280
*573 g7239
*574 g7179
*575 g7180
*576 g7181
*577 g7187
*578 g7195
*579 g7241
*580 g7266
*581 g7185
*582 g7189
*583 g7269
*584 g7284
*585 g7282
*586 g7271
*587 g7220
*588 g7276
*589 g7278
*590 g7234
*591 g7175
*592 g7230
*593 g7232
*594 g7199
*595 g7250
*596 g7242
*597 g7243
*598 g7235
*599 g7240
*600 g7233
*601 g7283
*602 g7259
*603 g7279
*604 g7245
*605 g7260
*606 g7262
*607 g7281
*608 g7286
*609 g7246
*610 g7236
*611 g7277
*612 g7275
*613 g7257
*614 g7255
*615 g7285
*616 g7270
*617 g7238
*618 g7267
*619 g7251
*620 g7264
*621 g7237
*622 g7272
*623 g7268
*624 g7274
*625 g7256
*626 g7261
*627 g7248
*628 g7253
*629 g7247
*630 g7244
*631 g7254
*632 g7258
*633 g7252
*634 g7265
*635 g7273
*636 g7249
*637 g7263
*638 g7290
*639 g7296
*640 g7298
*641 g7297
*642 g7288
*643 g7299
*644 g7292


*PORTS

*1 I *C 9.405 0
*2 I *C 8.645 0
*3 I *C 15.295 0
*4 I *C 10.735 30.24
*5 I *C 32.87 16.87
*6 I *C 18.715 30.24
*7 I *C 10.935 30.24
*8 I *C 14.915 30.24
*9 I *C 14.535 30.24
*10 I *C 32.87 17.43
*11 O *C 32.87 15.47
*12 O *C 32.87 16.17
*13 O *C 32.87 14.07
*14 O *C 32.87 22.33
*15 O *C 12.635 30.24
*16 O *C 17.765 30.24
*17 O *C 32.87 15.89
*18 O *C 25.555 30.24
*19 O *C 17.005 30.24
*20 O *C 32.87 13.79
*21 O *C 22.325 0
*22 O *C 21.185 30.24
*23 O *C 32.87 14.77
*24 O *C 24.035 0
*25 O *C 21.295 30.24
*26 O *C 32.87 14.35
*27 O *C 19.665 0
*28 O *C 32.87 21.07
*29 O *C 23.465 0


*D_NET *1 0.00269684

*CONN
*P *1 I *C 9.405 0 *L 0
*I *339:CK I *C 6.255 9.545 *L 0.00102 *D DFFR_X2
*I *336:CK I *C 15.755 6.745 *L 0.00102 *D DFFR_X2
*I *334:CK I *C 11.765 6.745 *L 0.00102 *D DFFR_X2
*I *333:CK I *C 6.255 6.745 *L 0.00102 *D DFFR_X2
*I *332:CK I *C 6.255 8.095 *L 0.00102 *D DFFR_X2
*I *331:CK I *C 10.245 8.095 *L 0.00102 *D DFFR_X2

*CAP
1 *1 7.43183e-06
2 *339:CK 1.89597e-05
3 *336:CK 1.89597e-05
4 *334:CK 1.89597e-05
5 *333:CK 1.89597e-05
6 *332:CK 1.89597e-05
7 *331:CK 1.89597e-05
8 *1:7 1.61174e-05
9 *1:8 1.61174e-05
10 *1:9 1.68493e-05
11 *1:10 5.95e-05
12 *1:11 9.2444e-05
13 *1:12 2.20402e-05
14 *1:13 2.20402e-05
15 *1:14 0.00013101
16 *1:15 0.00010341
17 *1:16 1.47615e-05
18 *1:17 4.0546e-05
19 *1:18 4.0546e-05
20 *1:19 0.000126988
21 *1:20 0.000126988
22 *1:21 1.69797e-05
23 *1:22 1.51416e-05
24 *1:23 1.51416e-05
25 *1:24 1.69797e-05
26 *1:25 1.40637e-05
27 *1:26 1.40637e-05
28 *1:27 0.000313561
29 *1:28 0.00037179
30 *1:29 5.76392e-05
31 *1:30 5.82292e-05
32 *1:31 1.88292e-05
33 *1:32 5.76392e-05
34 *1:30 *213:34 3.499e-05
35 *1:28 *213:35 3.499e-05
36 *1:28 *213:34 2.449e-05
37 *1:27 *213:35 2.44899995e-05
38 *1:10 *324:21 4.149e-05
39 *1:11 *324:17 4.149e-05
40 *1:10 *324:17 2.593e-05
41 *1:11 *324:15 2.593e-05
42 *1:11 *324:15 2.238e-05
43 *1:14 *324:11 2.238e-05
44 *1:14 *324:15 1.392e-05
45 *1:15 *324:11 1.39200038e-05
46 *1:14 *321:12 1.934e-05
47 *1:15 *321:3 1.934e-05
48 *1:15 *321:12 2.42e-06
49 *1:16 *321:3 2.42e-06
50 *1:17 *321:4 3.439e-05
51 *1:18 *321:2 3.43900022e-05
52 *1:10 *276:27 6.805e-05
53 *1:11 *276:28 6.805e-05
54 *1:10 *276:29 6.742e-05
55 *1:11 *276:30 6.742e-05
56 *1:11 *276:29 3.33e-05
57 *1:14 *276:30 3.33000015e-05

*RES
1 *1 *1:9 0.624916
2 *1:31 *331:CK 3.99998
3 *1:18 *332:CK 3.99998
4 *1:13 *336:CK 3.99998
5 *1:25 *1:9 3.99998
6 *1:32 *1:31 3.99998
7 *1:17 *339:CK 3.99998
8 *1:18 *1:17 4.50009
9 *1:8 *334:CK 3.99998
10 *1:13 *1:12 0.500107
11 *1:25 *1:26 0.46423
12 *1:29 *1:32 2.92867
13 *1:24 *1:17 3.99998
14 *1:8 *1:7 0.500107
15 *1:10 *1:12 3.99998
16 *1:27 *1:26 3.99998
17 *1:30 *1:29 3.99998
18 *1:21 *1:24 0.678623
19 *1:22 *333:CK 3.99998
20 *1:11 *1:7 3.99998
21 *1:11 *1:10 14.25
22 *1:27 *1:28 9.86993
23 *1:28 *1:30 2.10001
24 *1:19 *1:21 3.99998
25 *1:22 *1:23 0.500107
26 *1:14 *1:11 8.35722
27 *1:14 *1:28 3.99998
28 *1:20 *1:19 3.98998
29 *1:15 *1:23 3.99998
30 *1:15 *1:14 11.3213
31 *1:16 *1:20 3.99998
32 *1:16 *1:15 0.678623
*END

*D_NET *2 0.000838762

*CONN
*P *2 I *C 8.645 0 *L 0
*I *641:A I *C 10.13 7 *L 0.000565 *D INV_X1

*CAP
1 *2 9.89196e-05
2 *641:A 1.89609e-05
3 *2:2 0.0001067
4 *2:3 3.04906e-05
5 *2:4 0.00013634
6 *2:5 3.21299e-05
7 *2:6 8.82907e-05
8 *2:7 8.82907e-05
9 *2:8 0.00013634
10 *2:9 5.11491e-05
11 *2:10 5.11491e-05

*RES
1 *2:10 *641:A 4
2 *2:9 *2:10 4
3 *2:8 *2:9 4
4 *2:4 *2:8 8.25134
5 *2:5 *2:4 4
6 *2:3 *2:5 1.49995
7 *2:3 *2:7 0.678492
8 *2:6 *2:7 7.49995
9 *2:2 *2:6 0.678492
10 *2 *2:2 11.625
*END

*D_NET *3 0.00968147

*CONN
*P *3 I *C 15.295 0 *L 0
*I *640:A I *C 17.99 7.84 *L 0.00187 *D INV_X4
*I *637:A2 I *C 8.68 15.54 *L 0.00111 *D NAND2_X2
*I *626:A2 I *C 21.22 7.7 *L 0.00111 *D NAND2_X2
*I *619:A2 I *C 18.87 7.7 *L 0.00111 *D NAND2_X2
*I *540:A3 I *C 17.35 9.94 *L 0.0012 *D NAND3_X2
*I *529:A I *C 15.775 21.84 *L 0.00108 *D OAI21_X2
*I *480:A3 I *C 17.54 12.74 *L 0.0012 *D NAND3_X2
*I *471:B2 I *C 12.29 10.5 *L 0.00126 *D AOI22_X2
*I *393:B2 I *C 17.61 10.5 *L 0.00147 *D AOI221_X2

*CAP
1 *3 0.000256479
2 *640:A 1.8962e-05
3 *637:A2 1.8962e-05
4 *626:A2 1.8962e-05
5 *619:A2 1.8962e-05
6 *540:A3 8.42197e-06
7 *529:A 1.8962e-05
8 *480:A3 1.61943e-06
9 *471:B2 1.8962e-05
10 *393:B2 1.8962e-05
11 *3:10 0.000299800957
12 *3:11 0.000258318
13 *3:12 5.67396e-05
14 *3:13 4.09113e-05
15 *3:14 4.51886e-05
16 *3:15 7.99698e-05
17 *3:16 2.32393e-05
18 *3:17 2.32393e-05
19 *3:18 4.41959e-05
20 *3:19 5.37981e-05
21 *3:20 5.37981e-05
22 *3:21 5.08978e-05
23 *3:22 2.85322e-05
24 *3:23 2.66429e-05
25 *3:24 4.32809e-05
26 *3:25 4.16386e-05
27 *3:26 1.36279e-05
28 *3:27 1.36279e-05
29 *3:28 3.29285e-05
30 *3:29 3.29285e-05
31 *3:30 8.00064e-05
32 *3:31 8.00064e-05
33 *3:32 4.6227e-05
34 *3:33 3.68901e-05
35 *3:34 4.44292e-05
36 *3:35 4.44292e-05
37 *3:36 7.06832e-05
38 *3:37 7.06832e-05
39 *3:38 5.48411e-05
40 *3:39 5.48411e-05
41 *3:40 1.87607e-05
42 *3:41 6.35788e-05
43 *3:42 6.35788e-05
44 *3:43 1.29326e-05
45 *3:44 2.08788e-05
46 *3:45 1.737e-05
47 *3:46 6.88076e-05
48 *3:47 6.88076e-05
49 *3:48 7.70512e-05
50 *3:49 8.30394e-05
51 *3:50 1.65603e-05
52 *3:51 1.65603e-05
53 *3:52 3.06594e-05
54 *3:53 2.42366e-05
55 *3:54 4.81484e-05
56 *3:55 3.20227e-05
57 *3:56 2.90583e-05
58 *3:57 4.04904e-05
59 *3:58 2.19767e-05
60 *3:59 2.19767e-05
61 *3:60 1.79007e-05
62 *3:61 2.63821e-05
63 *3:62 7.98005e-05
64 *3:63 3.75397e-05
65 *3:64 6.02026e-05
66 *3:65 6.02026e-05
67 *3:66 2.55495e-05
68 *3:67 4.24392e-05
69 *3:68 4.71374e-05
70 *3:69 1.42272e-05
71 *3:70 1.42272e-05
72 *3:71 1.86692e-05
73 *3:72 2.46575e-05
74 *3:73 5.84597e-05
75 *3:74 5.65704e-05
76 *3:75 1.72008e-05
77 *3:76 5.21421e-05
78 *3:77 4.57192e-05
79 *3:78 4.56964e-05
80 *3:79 1.58101e-05
81 *3:80 0.000265898
82 *3:81 1.58101e-05
83 *3:82 1.91907e-05
84 *3:83 1.9328e-05
85 *3:84 1.96802e-05
86 *3:85 1.88293e-05
87 *3:86 1.11027e-05
88 *3:87 2.08468e-05
89 *3:88 2.22603e-05
90 *3:89 2.52522e-05
91 *3:90 1.88293e-05
92 *3:91 2.22603e-05
93 *3:92 3.74208e-05
94 *3:93 3.74208e-05
95 *3:93 *306:55 8.181e-05
96 *3:92 *306:56 8.181e-05
97 *3:91 *306:23 0.00010865
98 *3:88 *306:24 0.00010865
99 *3:12 *306:57 7.522e-05
100 *3:13 *306:58 7.52200017e-05
101 *3:93 *276:45 3.149e-05
102 *3:92 *276:46 3.149e-05
103 *3:81 *276:27 2.627e-05
104 *3:79 *276:28 2.627e-05
105 *3:12 *276:47 4.179e-05
106 *3:13 *276:48 4.179e-05
107 *3:12 *276:48 8.36e-06
108 *3:13 *276:49 8.36000118e-06
109 *3:58 *92:27 6.545e-05
110 *3:59 *92:26 6.54499964e-05
111 *3:58 *211:12 6.545e-05
112 *3:59 *211:13 6.54499964e-05
113 *3:61 *329:59 3.272e-05
114 *3:62 *329:58 3.272e-05
115 *3:62 *329:59 8.18e-06
116 *3:63 *329:58 8.18e-06
117 *3:64 *329:48 0.00012178
118 *3:65 *329:49 0.000121779999
119 *3:52 *311:14 6.545e-05
120 *3:53 *311:15 6.54499964e-05
121 *3:52 *93:65 8.999e-05
122 *3:53 *93:66 8.999e-05
123 *3:70 *93:56 1.373e-05
124 *3:69 *93:57 1.37300058e-05
125 *3:46 *181:11 5.727e-05
126 *3:47 *181:12 5.727e-05
127 *3:41 *181:9 0.00010149
128 *3:42 *181:10 0.000101490001
129 *3:48 *64:23 9.817e-05
130 *3:49 *64:22 9.81700005e-05
131 *3:72 *8:51 4.09e-05
132 *3:71 *8:52 4.09e-05
133 *3:67 *8:85 8.36e-06
134 *3:68 *8:86 8.36e-06
135 *3:84 *8:40 5.41e-06
136 *3:83 *8:41 5.41000316e-06
137 *3:38 *319:11 0.00013089
138 *3:39 *319:9 0.000130890005
139 *3:38 *316:10 5.727e-05
140 *3:39 *316:11 5.7269999e-05
141 *3:38 *330:40 8.18e-06
142 *3:39 *330:41 8.18e-06
143 *3:41 *330:48 5.91e-05
144 *3:42 *330:49 5.91e-05
145 *3:81 *330:59 1.134e-05
146 *3:79 *330:60 1.134e-05
147 *3:40 *330:61 1.075e-05
148 *3:32 *330:62 1.075e-05
149 *3:32 *330:62 2.268e-05
150 *3:33 *330:63 2.26800019e-05
151 *3:36 *209:6 9.91e-05
152 *3:37 *209:7 9.91000021e-05
153 *3:34 *302:6 8.358e-05
154 *3:35 *302:7 8.358e-05
155 *3:30 *302:14 3.55e-06
156 *3:31 *302:11 3.54999611e-06
157 *3:50 *185:23 5.612e-05
158 *3:51 *185:24 5.61200005e-05
159 *3:50 *7:58 1.612e-05
160 *3:51 *7:41 1.612e-05
161 *3:50 *7:41 6.746e-05
162 *3:51 *7:36 6.74599975e-05
163 *3:41 *153:38 2.089e-05
164 *3:42 *153:34 2.089e-05
165 *3:43 *153:15 2.268e-05
166 *3:44 *153:16 2.268e-05
167 *3:44 *153:15 2.268e-05
168 *3:45 *153:16 2.26799991e-05
169 *3:41 *106:6 0.00022685
170 *3:42 *106:7 0.000226850004
171 *3:43 *195:53 1.791e-05
172 *3:44 *195:54 1.791e-05
173 *3:15 *195:9 0.00016715
174 *3:18 *195:10 0.000167149992
175 *3:14 *288:57 3.403e-05
176 *3:15 *288:49 3.403e-05
177 *3:15 *288:57 0.00010149
178 *3:18 *288:49 0.00010149
179 *3:56 *288:56 2.7e-06
180 *3:57 *288:55 2.70000681e-06
181 *3:91 *142:46 0.00014268
182 *3:88 *142:47 0.000142679999
183 *3:19 *255:9 4.179e-05
184 *3:20 *255:8 4.179e-05
185 *3:19 *255:7 3.057e-05
186 *3:20 *255:5 3.05699966e-05
187 *3:10 *323:5 6.686e-05
188 *3:11 *323:3 6.68600031e-05

*RES
1 *3:86 *480:A3 0.217009
2 *3:28 *3:86 4.00002
3 *3:29 *3:28 2.50001
4 *3:26 *3:29 4.00002
5 *3:27 *3:26 0.714188
6 *3:58 *3:27 4.00002
7 *3:85 *393:B2 4.00002
8 *3:90 *626:A2 4.00002
9 *3:83 *529:A 4.00002
10 *3:59 *3:58 1.67996
11 *3:66 *3:85 4.00002
12 *3:17 *3:90 4.00002
13 *3:83 *3:84 1
14 *3:54 *3:59 4.00002
15 *3:54 *3:66 0.714188
16 *3:17 *3:16 0.392733
17 *3:82 *3:84 0.678549
18 *3:55 *3:54 0.64291
19 *3:93 *3:16 4.00002
20 *3:36 *3:82 4.00002
21 *540:A3 *3:60 0.84157
22 *3:19 *3:55 4.00002
23 *3:92 *3:93 2.31017
24 *3:37 *3:36 5.92875
25 *3:67 *3:60 4.00002
26 *3:20 *3:19 6.50002
27 *3:91 *3:92 4.00002
28 *3:77 *3:37 4.00002
29 *3:68 *3:67 3.50001
30 *3:45 *3:20 4.00002
31 *3:88 *3:91 8.53567
32 *3:76 *3:77 1.67996
33 *3:44 *3:68 4.00002
34 *3:45 *3:44 1.3571
35 *3:13 *3:88 4.00002
36 *3:52 *3:76 0.419903
37 *3:44 *3:43 1.3571
38 *3:12 *619:A2 4.00002
39 *3:13 *3:12 5.50002
40 *3:53 *3:52 2.31017
41 *3:87 *640:A 4.00002
42 *3:56 *3:43 4.00002
43 *3:12 *3:89 1
44 *3:34 *3:53 4.00002
45 *3 *3:80 23.125
46 *3:87 *3:57 1
47 *3:57 *3:56 2.00001
48 *3:14 *3:89 4.00002
49 *3:35 *3:34 5.00002
50 *3:81 *3:80 4.00002
51 *3:15 *3:57 4.00002
52 *3:15 *3:14 3.39274
53 *3:46 *3:35 4.00002
54 *3:79 *3:81 1.57128
55 *3:18 *3:15 11.0713
56 *3:47 *3:46 1.47001
57 *3:63 *3:79 4.00002
58 *3:61 *3:18 4.00002
59 *3:50 *3:47 4.00002
60 *3:63 *3:62 1.67996
61 *3:62 *3:61 0.840158
62 *3:51 *3:50 5.00002
63 *3:78 *3:62 0.840158
64 *3:48 *3:51 4.00002
65 *3:64 *3:78 4.00002
66 *3:49 *3:48 3.35993
67 *3:65 *3:64 7.28584
68 *3:72 *3:49 0.419903
69 *3:11 *3:65 4.00002
70 *3:71 *3:72 1.05011
71 *3:10 *471:B2 4.00002
72 *3:11 *3:10 11
73 *3:30 *3:71 4.00002
74 *3:10 *3:21 1.50001
75 *3:31 *3:30 7.17857
76 *3:23 *3:21 4.00002
77 *3:40 *3:31 4.00002
78 *3:23 *3:22 1.03141
79 *3:32 *637:A2 4.00002
80 *3:32 *3:40 0.64291
81 *3:22 *3:73 1.52012
82 *3:33 *3:32 4.85711
83 *3:73 *3:74 3.09422
84 *3:70 *3:33 4.00002
85 *3:75 *3:74 4.00002
86 *3:69 *3:70 0.821457
87 *3:75 *3:25 0.678549
88 *3:38 *3:69 4.00002
89 *3:25 *3:24 1.50001
90 *3:39 *3:38 3.35993
91 *3:41 *3:24 4.00002
92 *3:42 *3:39 4.00002
93 *3:42 *3:41 17.107
*END

*D_NET *4 0.00291481

*CONN
*P *4 I *C 10.735 30.24 *L 0
*I *636:A2 I *C 8.99 21.7 *L 0.00116 *D NOR2_X2
*I *628:A1 I *C 12.86 21.14 *L 0.00118 *D NAND2_X2
*I *627:A1 I *C 12.79 23.66 *L 0.000624 *D AND2_X4
*I *621:A2 I *C 8.8 23.94 *L 0.00111 *D NAND2_X2
*I *617:A2 I *C 13.55 23.94 *L 0.00116 *D NOR2_X2
*I *609:A2 I *C 8.87 21.14 *L 0.00116 *D NOR2_X2
*I *440:A3 I *C 16.78 21.14 *L 0.0012 *D NAND3_X2

*CAP
1 *4 0.00022594
2 *636:A2 1.89588e-05
3 *628:A1 1.89588e-05
4 *627:A1 1.89588e-05
5 *621:A2 5.68872e-06
6 *617:A2 1.89588e-05
7 *609:A2 1.89588e-05
8 *440:A3 1.89588e-05
9 *4:8 0.00023536
10 *4:9 2.10777e-05
11 *4:10 2.10777e-05
12 *4:11 2.29201e-05
13 *4:12 2.38395e-05
14 *4:13 3.55401e-05
15 *4:14 3.08283e-05
16 *4:15 2.80809e-05
17 *4:16 2.3369e-05
18 *4:17 9.45714e-05
19 *4:18 9.45714e-05
20 *4:19 0.000132959
21 *4:20 0.000137348
22 *4:21 1.4642e-05
23 *4:22 1.84309e-05
24 *4:23 1.79209e-05
25 *4:24 7.63201e-05
26 *4:25 9.50706e-05
27 *4:26 1.38088e-05
28 *4:27 3.25593e-05
29 *4:28 1.88295e-05
30 *4:29 1.88295e-05
31 *4:30 2.97185e-05
32 *4:31 2.53299e-05
33 *4:32 1.88295e-05
34 *4:17 *142:35 8.181e-05
35 *4:18 *142:36 8.181e-05
36 *4:17 *142:37 5.1e-06
37 *4:18 *142:38 5.1e-06
38 *4:27 *142:39 6.686e-05
39 *4:25 *142:40 6.68599996e-05
40 *4:31 *208:9 4.537e-05
41 *4:30 *208:10 4.537e-05
42 *4:30 *208:9 1.254e-05
43 *4:27 *208:10 1.25399972e-05
44 *4:27 *10:37 3.403e-05
45 *4:25 *10:38 3.403e-05
46 *4:25 *10:37 4.78e-06
47 *4:24 *10:38 4.78e-06
48 *4 *10:13 2.433e-05
49 *4:8 *10:14 2.43300013e-05
50 *4:19 *267:16 8.775e-05
51 *4:20 *267:17 8.775e-05
52 *4:20 *267:16 1.254e-05
53 *4:26 *267:17 1.25400023e-05
54 *4:19 *68:28 7.94e-05
55 *4:20 *68:24 7.93999993e-05
56 *4:9 *7:42 5.41e-06
57 *4:10 *7:43 5.41e-06
58 *4:13 *7:37 0.00010865
59 *4:14 *7:38 0.000108650002
60 *4:13 *54:3 7.522e-05
61 *4:14 *54:4 7.52200006e-05

*RES
1 *4:32 *440:A3 3.99998
2 *4:28 *628:A1 3.99998
3 *4:19 *4:32 3.99998
4 *4:20 *4:28 3.99998
5 *4:20 *4:19 14.2501
6 *4:9 *617:A2 3.99998
7 *4:26 *4:20 0.750177
8 *4:10 *4:9 0.999996
9 *4:18 *4:26 3.99998
10 *4:29 *627:A1 3.99998
11 *4:31 *4:10 3.99998
12 *4:18 *4:17 3.78009
13 *4:30 *4:29 3.99998
14 *4:30 *4:31 2.71412
15 *4:21 *621:A2 0.759911
16 *4:27 *4:17 3.99998
17 *4:27 *4:30 0.750177
18 *4:8 *4 23.625
19 *4:21 *4:22 1.03136
20 *4:25 *4:27 6.71447
21 *4:25 *4:8 3.99998
22 *4:23 *4:22 3.99998
23 *4:24 *4:25 5.4286
24 *4:23 *4:13 0.67844
25 *4:13 *4:24 3.99998
26 *4:14 *4:13 6.49998
27 *4:15 *636:A2 3.99998
28 *4:15 *4:14 0.67844
29 *4:16 *4:15 1.49999
30 *4:11 *4:16 0.67844
31 *4:12 *4:11 0.999996
32 *609:A2 *4:12 3.99998
*END

*D_NET *5 0.00455237

*CONN
*P *5 I *C 32.87 16.87 *L 0
*I *633:A2 I *C 15.71 23.94 *L 0.00116 *D NOR2_X2
*I *630:A1 I *C 26.16 23.94 *L 0.00118 *D NAND2_X2
*I *610:A2 I *C 24.26 15.12 *L 0.000647 *D AND2_X4
*I *350:A3 I *C 26.09 13.65 *L 0.00138 *D NOR3_X2
*I *343:B2 I *C 26.73 18.2 *L 0.00127 *D OAI21_X2

*CAP
1 *5 0.000114169
2 *633:A2 1.89613e-05
3 *630:A1 1.89613e-05
4 *610:A2 1.89613e-05
5 *350:A3 8.94936e-06
6 *343:B2 1.89613e-05
7 *5:6 7.15103e-05
8 *5:7 7.15103e-05
9 *5:8 0.000123589
10 *5:9 2.88593e-05
11 *5:10 1.95901e-05
12 *5:11 3.87021e-05
13 *5:12 4.76184e-05
14 *5:13 8.29893e-05
15 *5:14 8.33386e-05
16 *5:15 0.000240959922
17 *5:16 0.00022251
18 *5:17 7.72498e-05
19 *5:18 7.72498e-05
20 *5:19 2.66091e-05
21 *5:20 3.02712e-05
22 *5:21 3.22493e-05
23 *5:22 3.22493e-05
24 *5:23 1.89282e-05
25 *5:24 1.89282e-05
26 *5:25 3.35105e-05
27 *5:26 1.92812e-05
28 *5:27 5.19019e-05
29 *5:28 5.19019e-05
30 *5:29 1.8829e-05
31 *5:30 1.8829e-05
32 *5:31 1.84319e-05
33 *5:32 1.8829e-05
34 *5:33 2.36493e-05
35 *5:34 1.281e-05
36 *5:35 1.281e-05
37 *5:36 2.42118e-05
38 *5:23 *38:19 3.5e-06
39 *5:24 *38:20 3.5e-06
40 *5:33 *38:7 4.059e-05
41 *5:25 *38:8 4.059e-05
42 *5:25 *38:7 9.074e-05
43 *5:26 *38:8 9.0739999e-05
44 *5:23 *325:80 8.181e-05
45 *5:24 *325:81 8.181e-05
46 *5:25 *325:37 3.403e-05
47 *5:26 *325:38 3.403e-05
48 *5:25 *325:38 6.805e-05
49 *5:26 *325:39 6.805e-05
50 *5:27 *325:97 3.82e-06
51 *5:28 *325:96 3.81999489e-06
52 *5:36 *172:20 5.19e-06
53 *5:15 *172:21 5.19e-06
54 *5:15 *172:20 5.705e-05
55 *5:16 *172:21 5.705e-05
56 *5:15 *172:22 1.037e-05
57 *5:16 *172:23 1.03699964e-05
58 *5:15 *61:7 0.00024953
59 *5:16 *61:4 0.00024953
60 *5:17 *61:7 0.00018148
61 *5:18 *61:4 0.00018148
62 *5:19 *61:7 4.537e-05
63 *5:20 *61:4 4.53699599e-05
64 *5:15 *202:9 9.074e-05
65 *5:16 *202:7 9.07399974e-05
66 *5 *10 7.371e-05
67 *5:8 *10:72 7.371e-05
68 *5 *10:28 2.182e-05
69 *5:8 *10:29 2.18200035e-05
70 *5 *12:2 7.279e-05
71 *5:8 *12:3 7.279e-05
72 *5 *12 7.6e-07
73 *5:8 *12:7 7.6e-07
74 *5:9 *12:6 1.146e-05
75 *5:10 *12:4 1.14600064e-05
76 *5:11 *313:7 5.015e-05
77 *5:12 *313:8 5.015e-05
78 *5:12 *313:7 2.507e-05
79 *5:9 *313:8 2.50700007e-05
80 *5:11 *188:8 7.522e-05
81 *5:12 *188:9 7.52200006e-05
82 *5:12 *117:4 5.85e-05
83 *5:9 *117:5 5.84999984e-05

*RES
1 *5:31 *350:A3 1.03138
2 *5:7 *5:31 4.00013
3 *5:30 *610:A2 4.00013
4 *5:7 *5:6 4.49987
5 *5:26 *5:30 4.00013
6 *5:25 *5:6 4.00013
7 *5:26 *5:25 6.1071
8 *5:25 *5:33 2.42842
9 *5:24 *5:33 4.00013
10 *5:24 *5:23 2.10009
11 *5:34 *5:23 4.00013
12 *5:34 *5:35 0.285568
13 *5:10 *5:35 4.00013
14 *5:8 *5 21.9286
15 *5:10 *5:9 1.49996
16 *5:9 *5:8 4.00013
17 *5:12 *343:B2 4.00013
18 *5:9 *5:12 4.49987
19 *5:12 *5:11 9.00011
20 *5:11 *5:22 0.678406
21 *5:22 *5:21 1.49996
22 *5:21 *5:28 0.678406
23 *5:28 *5:27 4.00013
24 *5:14 *5:27 0.678406
25 *5:14 *5:13 5.99983
26 *5:32 *630:A1 4.00013
27 *5:36 *5:13 4.00013
28 *5:15 *5:32 4.00013
29 *5:15 *5:36 2.71435
30 *5:16 *5:15 23.75
31 *5:17 *5:16 0.250053
32 *5:18 *5:17 10.857
33 *5:18 *5:19 0.250053
34 *5:20 *5:19 2.71435
35 *5:29 *5:20 4.00013
36 *633:A2 *5:29 4.00013
*END

*D_NET *6 0.00489685

*CONN
*P *6 I *C 18.715 30.24 *L 0
*I *638:A I *C 6.52 23.8 *L 0.00187 *D INV_X4
*I *633:A1 I *C 15.385 23.94 *L 0.00129 *D NOR2_X2
*I *630:A2 I *C 26.35 23.94 *L 0.00111 *D NAND2_X2

*CAP
1 *6 0.000210419
2 *638:A 1.89642e-05
3 *633:A1 1.89642e-05
4 *630:A2 1.89642e-05
5 *6:4 0.000219837
6 *6:5 5.88827e-05
7 *6:6 0.000608565
8 *6:7 5.88827e-05
9 *6:8 7.43482e-05
10 *6:9 0.00083076
11 *6:10 7.43482e-05
12 *6:11 0.000743545
13 *6:12 2.44278e-05
14 *6:13 0.00052135
15 *6:14 2.44278e-05
16 *6:14 *138:11 1.529e-05
17 *6:12 *138:12 1.529e-05
18 *6:13 *138:15 8.835e-05
19 *6:11 *138:16 8.83499981e-05
20 *6:13 *309:5 0.00024012
21 *6:11 *309:6 0.00024012
22 *6:11 *309:5 0.00012578
23 *6:9 *309:6 0.00012578
24 *6:9 *309:7 0.00020268
25 *6:6 *309:8 0.00020268
26 *6:9 *309:9 2.287e-05
27 *6:6 *309:10 2.28699741e-05

*RES
1 *6:12 *630:A2 3.9999
2 *6:12 *6:14 2.00031
3 *6:8 *633:A1 3.9999
4 *6:13 *6:14 3.9999
5 *6:4 *6 20.625
6 *6:8 *6:10 2.00031
7 *6:11 *6:13 41.2573
8 *6:11 *6:4 3.9999
9 *6:9 *6:10 3.9999
10 *6:9 *6:11 18.5661
11 *6:6 *6:9 47.445713
12 *6:7 *6:6 3.9999
13 *6:5 *6:7 2.49985
14 *638:A *6:5 3.9999
*END

*D_NET *7 0.00607547

*CONN
*P *7 I *C 10.935 30.24 *L 0
*I *642:A I *C 14.12 23.8 *L 0.00187 *D INV_X4
*I *636:A1 I *C 9.315 21.7 *L 0.00129 *D NOR2_X2
*I *627:A2 I *C 12.98 23.52 *L 0.000647 *D AND2_X4
*I *606:A2 I *C 16.59 15.54 *L 0.00116 *D NOR2_X2
*I *604:A2 I *C 6.59 16.1 *L 0.00111 *D NAND2_X2
*I *549:A2 I *C 6.78 21.7 *L 0.00111 *D NAND2_X2
*I *534:A2 I *C 12.03 18.34 *L 0.00111 *D NAND2_X2
*I *458:B3 I *C 9.18 18.06 *L 0.000753 *D OAI33_X1
*I *457:A2 I *C 14.5 14.86 *L 0.000715 *D OAI22_X1
*I *444:B I *C 7.025 21.7 *L 0.00123 *D OAI211_X2

*CAP
1 *7 1.98793e-05
2 *642:A 1.89597e-05
3 *636:A1 1.89597e-05
4 *627:A2 1.89597e-05
5 *606:A2 1.89597e-05
6 *604:A2 1.89597e-05
7 *549:A2 1.10116e-05
8 *534:A2 1.89597e-05
9 *458:B3 1.89597e-05
10 *457:A2 1.89597e-05
11 *444:B 2.52298e-05
12 *7:11 2.87106e-05
13 *7:12 2.70692e-05
14 *7:13 1.90998e-05
15 *7:14 1.90998e-05
16 *7:15 8.41309e-05
17 *7:16 8.41309e-05
18 *7:17 7.73096e-05
19 *7:18 7.73096e-05
20 *7:19 3.74809e-05
21 *7:20 3.74809e-05
22 *7:21 2.20689e-05
23 *7:22 2.11492e-05
24 *7:23 4.2402e-05
25 *7:24 1.99585e-05
26 *7:25 3.79925e-05
27 *7:26 6.50708e-05
28 *7:27 3.39514e-05
29 *7:28 1.36823e-05
30 *7:29 1.36823e-05
31 *7:30 3.95394e-05
32 *7:31 4.20913e-05
33 *7:32 4.98902e-05
34 *7:33 4.98902e-05
35 *7:34 6.27899e-05
36 *7:35 6.27899e-05
37 *7:36 7.91002e-05
38 *7:37 4.17229e-05
39 *7:38 4.17229e-05
40 *7:39 9.3221e-05
41 *7:40 9.3221e-05
42 *7:41 6.99614e-05
43 *7:42 3.98196e-05
44 *7:43 2.31591e-05
45 *7:44 5.13398e-05
46 *7:45 5.22594e-05
47 *7:46 1.26499e-05
48 *7:47 1.47512e-05
49 *7:48 2.13807e-05
50 *7:49 4.03403e-05
51 *7:50 1.89597e-05
52 *7:51 1.88013e-05
53 *7:52 2.13502e-05
54 *7:53 8.37807e-05
55 *7:54 2.37894e-05
56 *7:55 2.07107e-05
57 *7:56 2.07107e-05
58 *7:57 9.0532e-05
59 *7:58 2.27206e-05
60 *7:59 9.0532e-05
61 *7:60 3.70393e-05
62 *7:61 2.51598e-05
63 *7:62 8.37807e-05
64 *7:63 0.00019957
65 *7:64 0.000198851
66 *7:65 2.01199e-05
67 *7:66 2.16395e-05
68 *7:67 2.63414e-05
69 *7:68 2.56409e-05
70 *7:69 6.74704e-05
71 *7:70 6.49885e-05
72 *7:71 1.6359e-05
73 *7:49 *195:41 4.909e-05
74 *7:50 *195:42 4.909e-05
75 *7:17 *195:43 2.179e-05
76 *7:18 *195:44 2.17900036e-05
77 *7:48 *123:16 1.636e-05
78 *7:49 *123:15 1.636e-05
79 *7:49 *123:16 4.909e-05
80 *7:50 *123:15 4.90900021e-05
81 *7:34 *134:30 0.00018816
82 *7:35 *134:31 0.00018816
83 *7:52 *134:20 3.403e-05
84 *7:51 *134:18 3.40299931e-05
85 *7:34 *225:13 0.00013089
86 *7:35 *225:14 0.000130890005
87 *7:30 *139:17 6.224e-05
88 *7:31 *139:18 6.224e-05
89 *7:65 *139:15 3.112e-05
90 *7:60 *139:16 3.112e-05
91 *7:60 *139:15 3.112e-05
92 *7:54 *139:16 3.11200118e-05
93 *7:30 *35:9 9.074e-05
94 *7:31 *35:6 9.07399974e-05
95 *7:65 *208:9 6.805e-05
96 *7:60 *208:10 6.805e-05
97 *7:60 *208:9 5.671e-05
98 *7:54 *208:10 5.67099972e-05
99 *7:25 *171:19 3.045e-05
100 *7:26 *171:10 3.045e-05
101 *7:26 *171:19 6.029e-05
102 *7:27 *171:10 6.029e-05
103 *7:28 *171:9 8.36e-06
104 *7:29 *171:8 8.36e-06
105 *7:21 *171:4 8.36e-06
106 *7:22 *171:5 8.35999894e-06
107 *7:58 *3:50 1.612e-05
108 *7:41 *3:51 1.612e-05
109 *7:41 *3:50 6.746e-05
110 *7:36 *3:51 6.74599975e-05
111 *7:23 *213:42 6.805e-05
112 *7:24 *213:43 6.80499984e-05
113 *7:41 *68:14 6.805e-05
114 *7:36 *68:13 6.80499984e-05
115 *7:23 *147:6 7.164e-05
116 *7:24 *147:5 7.16399973e-05
117 *7:19 *184:8 5.791e-05
118 *7:20 *184:5 5.79099985e-05
119 *7:13 *9 3.82e-06
120 *7:14 *9:13 3.82e-06
121 *7:64 *9 5.173e-05
122 *7:63 *9:13 5.173e-05
123 *7:11 *9 3.51e-06
124 *7:12 *9:13 3.51e-06
125 *7:61 *9 3.51e-06
126 *7:42 *9:13 3.51000094e-06
127 *7:42 *4:9 5.41e-06
128 *7:43 *4:10 5.41e-06
129 *7:37 *4:13 0.00010865
130 *7:38 *4:14 0.000108650002

*RES
1 *7:53 *7 3.99992
2 *7:53 *7:62 7.42854
3 *7:66 *457:A2 3.99992
4 *7:69 *606:A2 3.99992
5 *7:11 *7:62 3.99992
6 *7:66 *7:67 0.499878
7 *7:69 *7:70 2.49998
8 *7:12 *7:11 1.49993
9 *7:68 *7:67 3.99992
10 *7:70 *7:71 0.482025
11 *7:12 *7:64 0.678703
12 *7:68 *7:47 0.499878
13 *7:17 *7:71 3.99992
14 *7:14 *642:A 3.99992
15 *7:63 *7:64 19.5
16 *7:47 *7:46 0.142822
17 *7:18 *7:17 8.00013
18 *7:14 *7:13 0.499878
19 *7:43 *627:A2 3.99992
20 *7:61 *7:63 0.678703
21 *7:50 *7:46 3.99992
22 *7:48 *7:18 3.99992
23 *7:65 *7:13 3.99992
24 *7:43 *7:42 1.49993
25 *7:42 *7:61 1.49993
26 *7:50 *7:49 1.26011
27 *7:49 *7:48 0.420135
28 *7:60 *7:65 4.07133
29 *7:60 *7:42 3.99992
30 *7:39 *7:49 3.99992
31 *7:54 *7:60 4.75003
32 *7:40 *7:39 3.53574
33 *7:54 *7:30 0.499878
34 *7:16 *7:40 3.99992
35 *7:31 *7:30 8.14295
36 *7:16 *7:15 5.50014
37 *7:37 *7:31 3.99992
38 *7:19 *7:15 3.99992
39 *549:A2 *444:B 1.0313
40 *7:38 *636:A1 3.99992
41 *7:38 *7:37 8.00013
42 *7:20 *7:19 3.46433
43 *7:28 *444:B 3.99992
44 *7:52 *7:38 3.99992
45 *7:57 *7:20 3.99992
46 *7:29 *7:28 0.499878
47 *7:51 *7:52 2.03581
48 *7:55 *534:A2 3.99992
49 *7:57 *7:59 1.46988
50 *7:27 *7:29 3.99992
51 *7:25 *7:51 0.499878
52 *7:33 *458:B3 3.99992
53 *7:55 *7:56 0.499878
54 *7:58 *7:59 3.99992
55 *7:27 *7:26 4.28586