*SPEF "IEEE 1481-1998"
*DESIGN "s1494_bench"
*DATE "Wed Feb 18 17:27:55 2026"
*VENDOR "Cadence Design Systems, Inc."
*PROGRAM "Innovus"
*VERSION "21.39-s058_1"
*DESIGN_FLOW "COUPLING C" "PIN_CAP NONE" "NAME_SCOPE LOCAL"
*DIVIDER /
*DELIMITER :
*BUS_DELIMITER []
*T_UNIT 1 NS
*C_UNIT 1 PF
*R_UNIT 1 OHM
*L_UNIT 1 HENRY

// MMMC spef file for corner '_default_rc_corner_'

*NAME_MAP

*1 blif_clk_net
*2 blif_reset_net
*3 CLR
*4 v6
*5 v5
*6 v4
*7 v3
*8 v2
*9 v1
*10 v0
*11 v13_D_24
*12 v13_D_23
*13 v13_D_22
*14 v13_D_21
*15 v13_D_20
*16 v13_D_19
*17 v13_D_18
*18 v13_D_17
*19 v13_D_16
*20 v13_D_15
*21 v13_D_14
*22 v13_D_13
*23 v13_D_12
*24 v13_D_11
*25 v13_D_10
*26 v13_D_9
*27 v13_D_8
*28 v13_D_7
*29 v13_D_6
*30 n_0
*31 n_1
*32 n_2
*33 n_3
*34 n_4
*35 n_5
*36 n_6
*37 n_7
*38 n_8
*39 n_9
*40 n_10
*41 n_11
*42 n_12
*43 n_13
*44 n_14
*45 n_15
*46 n_16
*47 n_17
*48 n_18
*49 n_19
*50 n_20
*51 n_21
*52 n_22
*53 n_23
*54 n_24
*55 n_25
*56 n_26
*57 n_27
*58 n_28
*59 n_29
*60 n_30
*61 n_31
*62 n_32
*63 n_33
*64 n_34
*65 n_35
*66 n_36
*67 n_37
*68 n_38
*69 n_39
*70 n_40
*71 n_41
*72 n_42
*73 n_43
*74 n_44
*75 n_45
*76 n_46
*77 n_47
*78 n_48
*79 n_49
*80 n_50
*81 n_51
*82 n_52
*83 n_53
*84 n_54
*85 n_55
*86 n_56
*87 n_57
*88 n_58
*89 n_59
*90 n_60
*91 n_61
*92 n_62
*93 n_63
*94 n_64
*95 n_65
*96 n_66
*97 n_67
*98 n_68
*99 n_69
*100 n_70
*101 n_71
*102 n_72
*103 n_73
*104 n_74
*105 n_75
*106 n_76
*107 n_77
*108 n_78
*109 n_79
*110 n_80
*111 n_81
*112 n_82
*113 n_83
*114 n_84
*115 n_85
*116 n_86
*117 n_87
*118 n_88
*119 n_89
*120 n_90
*121 n_91
*122 n_92
*123 n_93
*124 n_94
*125 n_95
*126 n_96
*127 n_97
*128 n_98
*129 n_99
*130 n_100
*131 n_101
*132 n_102
*133 n_103
*134 n_104
*135 n_106
*136 n_107
*137 n_108
*138 n_109
*139 n_110
*140 n_111
*141 n_112
*142 n_113
*143 n_114
*144 n_115
*145 n_116
*146 n_117
*147 n_118
*148 n_119
*149 n_120
*150 n_121
*151 n_122
*152 n_123
*153 n_124
*154 n_125
*155 n_126
*156 n_127
*157 n_128
*158 n_129
*159 n_130
*160 n_131
*161 n_132
*162 n_133
*163 n_134
*164 n_135
*165 n_136
*166 n_137
*167 n_138
*168 n_139
*169 n_140
*170 n_141
*171 n_142
*172 n_143
*173 n_144
*174 n_145
*175 n_146
*176 n_147
*177 n_148
*178 n_149
*179 n_150
*180 n_151
*181 n_152
*182 n_153
*183 n_154
*184 n_155
*185 n_156
*186 n_157
*187 n_158
*188 n_159
*189 n_160
*190 n_161
*191 n_162
*192 n_163
*193 n_164
*194 n_165
*195 n_166
*196 n_167
*197 n_168
*198 n_169
*199 n_170
*200 n_171
*201 n_172
*202 n_173
*203 n_174
*204 n_175
*205 n_176
*206 n_177
*207 n_179
*208 n_181
*209 n_182
*210 n_183
*211 n_184
*212 n_185
*213 n_186
*214 n_187
*215 n_188
*216 n_189
*217 n_190
*218 n_191
*219 n_192
*220 n_193
*221 n_194
*222 n_195
*223 n_196
*224 n_197
*225 n_198
*226 n_199
*227 n_200
*228 n_201
*229 n_202
*230 n_203
*231 n_204
*232 n_205
*233 n_206
*234 n_207
*235 n_208
*236 n_209
*237 n_210
*238 n_211
*239 n_212
*240 n_213
*241 n_215
*242 n_216
*243 n_217
*244 n_218
*245 n_219
*246 n_220
*247 n_221
*248 n_222
*249 n_223
*250 n_224
*251 n_225
*252 n_226
*253 n_227
*254 n_228
*255 n_229
*256 n_230
*257 n_231
*258 n_232
*259 n_233
*260 n_234
*261 n_235
*262 n_237
*263 n_238
*264 n_240
*265 n_241
*266 n_242
*267 n_243
*268 n_244
*269 n_245
*270 n_246
*271 n_247
*272 n_248
*273 n_249
*274 n_250
*275 n_251
*276 n_252
*277 n_253
*278 n_254
*279 n_255
*280 n_256
*281 n_257
*282 n_258
*283 n_259
*284 n_260
*285 n_261
*286 n_262
*287 n_263
*288 n_266
*289 n_267
*290 n_268
*291 n_269
*292 n_270
*293 n_271
*294 n_272
*295 n_273
*296 n_274
*297 n_275
*298 n_276
*299 n_277
*300 n_278
*301 n_279
*302 n_280
*303 n_281
*304 n_284
*305 n_285
*306 n_286
*307 n_287
*308 n_288
*309 n_290
*310 n_292
*311 n_294
*312 n_296
*313 n_298
*314 n_300
*315 n_301
*316 n_302
*317 n_303
*318 n_304
*319 n_305
*320 n_307
*321 n_310
*322 n_311
*323 n_312
*324 n_313
*325 v7
*326 v8
*327 v9
*328 v10
*329 v11
*330 v12
*331 v8_reg
*332 v11_reg
*333 v9_reg
*334 v12_reg
*335 g6984
*336 v7_reg
*337 g6988
*338 g6987
*339 v10_reg
*340 g6998
*341 g6992
*342 g6989
*343 g6995
*344 g6990
*345 g6993
*346 g6999
*347 g7000
*348 g7002
*349 g7003
*350 g7012
*351 g7004
*352 g6997
*353 g6994
*354 g7013
*355 g7014
*356 g6996
*357 g7006
*358 g7018
*359 g7027
*360 g7008
*361 g7005
*362 g7007
*363 g7054
*364 g6991
*365 g7021
*366 g7065
*367 g7068
*368 g7025
*369 g7026
*370 g7080
*371 g7033
*372 g7029
*373 g7017
*374 g7010
*375 g7015
*376 g7016
*377 g7019
*378 g7020
*379 g7022
*380 g7023
*381 g7066
*382 g7024
*383 g7069
*384 g7028
*385 g7001
*386 g7031
*387 g7081
*388 g7034
*389 g7032
*390 g7009
*391 g7040
*392 g7011
*393 g7044
*394 g7049
*395 g7052
*396 g7061
*397 g7072
*398 g7078
*399 g7082
*400 g7035
*401 g7037
*402 g7048
*403 g7039
*404 g7100
*405 g7041
*406 g7107
*407 g7042
*408 g7043
*409 g7045
*410 g7047
*411 g7057
*412 g7064
*413 g7073
*414 g7076
*415 g7077
*416 g7030
*417 g7084
*418 g7085
*419 g7086
*420 g7087
*421 g7036
*422 g7063
*423 g7038
*424 g7101
*425 g7103
*426 g7105
*427 g7108
*428 g7118
*429 g7046
*430 g7051
*431 g7058
*432 g7062
*433 g7067
*434 g7070
*435 g7071
*436 g7074
*437 g7079
*438 g7083
*439 g7088
*440 g7091
*441 g7097
*442 g7099
*443 g7104
*444 g7106
*445 g7110
*446 g7111
*447 g7114
*448 g7116
*449 g7117
*450 g7123
*451 g7055
*452 g7056
*453 g7158
*454 g7059
*455 g7164
*456 g7060
*457 g7092
*458 g7075
*459 g7089
*460 g7093
*461 g7090
*462 g7095
*463 g7096
*464 g7098
*465 g7120
*466 g7109
*467 g7112
*468 g7113
*469 g7115
*470 g7121
*471 g7122
*472 g7130
*473 g7050
*474 g7132
*475 g7133
*476 g7136
*477 g7141
*478 g7142
*479 g7147
*480 g7159
*481 g7161
*482 g7162
*483 g7166
*484 g7167
*485 g7173
*486 g7200
*487 g7215
*488 g7094
*489 g7102
*490 g7119
*491 g7126
*492 g7128
*493 g7129
*494 g7131
*495 g7134
*496 g7137
*497 g7138
*498 g7139
*499 g7143
*500 g7144
*501 g7146
*502 g7148
*503 g7149
*504 g7151
*505 g7156
*506 g7160
*507 g7165
*508 g7168
*509 g7169
*510 g7170
*511 g7172
*512 g7182
*513 g7190
*514 g7227
*515 g7192
*516 g7196
*517 g7205
*518 g7208
*519 g7211
*520 g7212
*521 g7214
*522 g7216
*523 g7223
*524 g7224
*525 g7226
*526 g7229
*527 g7218
*528 g7177
*529 g7157
*530 g7155
*531 g7150
*532 g7206
*533 g7124
*534 g7125
*535 g7127
*536 g7053
*537 g7145
*538 g7140
*539 g7202
*540 g7153
*541 g7154
*542 g7201
*543 g7135
*544 g7163
*545 g7171
*546 g7174
*547 g7176
*548 g7178
*549 g7183
*550 g7184
*551 g7198
*552 g7186
*553 g7188
*554 g7194
*555 g7197
*556 g7203
*557 g7204
*558 g7193
*559 g7221
*560 g7222
*561 g7225
*562 g7228
*563 g7231
*564 g7191
*565 g7219
*566 g7217
*567 g7213
*568 g7210
*569 g7209
*570 g7207
*571 g7152
*572 g7280
*573 g7239
*574 g7179
*575 g7180
*576 g7181
*577 g7187
*578 g7195
*579 g7241
*580 g7266
*581 g7185
*582 g7189
*583 g7269
*584 g7284
*585 g7282
*586 g7271
*587 g7220
*588 g7276
*589 g7278
*590 g7234
*591 g7175
*592 g7230
*593 g7232
*594 g7199
*595 g7250
*596 g7242
*597 g7243
*598 g7235
*599 g7240
*600 g7233
*601 g7283
*602 g7259
*603 g7279
*604 g7245
*605 g7260
*606 g7262
*607 g7281
*608 g7286
*609 g7246
*610 g7236
*611 g7277
*612 g7275
*613 g7257
*614 g7255
*615 g7285
*616 g7270
*617 g7238
*618 g7267
*619 g7251
*620 g7264
*621 g7237
*622 g7272
*623 g7268
*624 g7274
*625 g7256
*626 g7261
*627 g7248
*628 g7253
*629 g7247
*630 g7244
*631 g7254
*632 g7258
*633 g7252
*634 g7265
*635 g7273
*636 g7249
*637 g7263
*638 g7290
*639 g7296
*640 g7298
*641 g7297
*642 g7288
*643 g7299
*644 g7292


*PORTS

*1 I *C 0 19.81
*2 I *C 0 20.93
*3 I *C 0 13.51
*4 I *C 21.945 30.24
*5 I *C 31.35 8.05
*6 I *C 31.35 9.17
*7 I *C 18.905 30.24
*8 I *C 31.35 14.91
*9 I *C 31.35 18.69
*10 I *C 31.35 13.93
*11 O *C 23.465 0
*12 O *C 15.485 0
*13 O *C 12.825 0
*14 O *C 31.35 8.33
*15 O *C 31.35 20.65
*16 O *C 31.35 18.97
*17 O *C 31.35 7.77
*18 O *C 31.35 12.67
*19 O *C 31.35 18.41
*20 O *C 23.845 0
*21 O *C 31.35 14.63
*22 O *C 31.35 12.95
*23 O *C 17.955 0
*24 O *C 31.35 16.87
*25 O *C 17.935 0
*26 O *C 12.255 0
*27 O *C 8.075 0
*28 O *C 18.335 0
*29 O *C 7.505 0


*D_NET *1 0.00200901

*CONN
*P *1 I *C 0 19.81 *L 0
*I *339:CK I *C 6.255 23.545 *L 0.00102 *D DFFR_X2
*I *336:CK I *C 9.895 19.295 *L 0.00102 *D DFFR_X2
*I *334:CK I *C 6.255 17.945 *L 0.00102 *D DFFR_X2
*I *333:CK I *C 10.245 23.545 *L 0.00102 *D DFFR_X2
*I *332:CK I *C 6.635 22.095 *L 0.00102 *D DFFR_X2
*I *331:CK I *C 6.255 20.745 *L 0.00102 *D DFFR_X2

*CAP
1 *1 0.000185389
2 *339:CK 1.89595e-05
3 *336:CK 1.89595e-05
4 *334:CK 1.89595e-05
5 *333:CK 1.89595e-05
6 *332:CK 1.89595e-05
7 *331:CK 1.89595e-05
8 *1:7 0.0002021
9 *1:8 9.18925e-05
10 *1:9 9.91796e-05
11 *1:10 1.96102e-05
12 *1:11 1.96102e-05
13 *1:12 1.44201e-05
14 *1:13 1.44201e-05
15 *1:14 3.21985e-05
16 *1:15 9.16921e-05
17 *1:16 6.89117e-05
18 *1:17 0.000117889
19 *1:18 0.0001845
20 *1:19 1.67083e-05
21 *1:20 6.66111e-05
22 *1:21 0.000159568
23 *1:22 1.883e-05
24 *1:23 4.32818e-05
25 *1:24 4.32818e-05
26 *1:25 0.00015228
27 *1:26 1.883e-05
28 *1:8 *324:31 3.112e-05
29 *1:9 *324:30 3.112e-05
30 *1:10 *324:17 1.037e-05
31 *1:11 *324:14 1.037e-05
32 *1:12 *324:29 7.3e-07
33 *1:13 *324:11 7.3e-07
34 *1:14 *324:10 1.285e-05
35 *1:15 *324:15 1.285e-05
36 *1:15 *324:10 1.07e-05
37 *1:16 *324:15 1.07000037e-05
38 *1:7 *2:3 5.125e-05
39 *1 *2 5.1249999e-05

*RES
1 *1:26 *333:CK 3.99985
2 *1:12 *332:CK 3.99985
3 *1:22 *339:CK 3.99985
4 *1:8 *1:26 3.99985
5 *1:13 *1:12 0.499898
6 *1:9 *1:22 3.99985
7 *1:9 *1:8 14.2501
8 *1:10 *1:13 3.99985
9 *1:19 *1:9 0.678576
10 *1:23 *336:CK 3.99985
11 *1:11 *1:10 2.03573
12 *1:20 *1:19 3.99985
13 *1:16 *334:CK 3.99985
14 *1:14 *331:CK 3.99985
15 *1:23 *1:24 1.50003
16 *1:18 *1:11 3.99985
17 *1:18 *1:20 2.09997
18 *1:16 *1:15 6.9999
19 *1:15 *1:14 3.00005
20 *1:25 *1:24 3.99985
21 *1:17 *1:18 3.36009
22 *1:21 *1:15 3.99985
23 *1:21 *1:25 12.2144
24 *1:7 *1:17 3.99985
25 *1:7 *1:21 0.678576
26 *1 *1:7 21.9285717
*END

*D_NET *2 0.000599138

*CONN
*P *2 I *C 0 20.93 *L 0
*I *641:A I *C 6.14 21.84 *L 0.000565 *D INV_X1

*CAP
1 *2 0.00018539
2 *641:A 1.89593e-05
3 *2:2 4.87389e-05
4 *2:3 0.00019481
5 *2:4 4.87389e-05
6 *2:3 *1:7 5.125e-05
7 *2 *1 5.1249999e-05

*RES
1 *2:4 *641:A 3.99985
2 *2:2 *2:4 3.49995
3 *2:3 *2:2 3.99985
4 *2 *2:3 21.9285717
*END

*D_NET *3 0.00417909

*CONN
*P *3 I *C 0 13.51 *L 0
*I *640:A I *C 7.09 13.44 *L 0.00187 *D INV_X4
*I *637:A2 I *C 14.95 16.1 *L 0.00111 *D NAND2_X2
*I *626:A2 I *C 8.11 15.54 *L 0.00111 *D NAND2_X2
*I *619:A2 I *C 6.59 16.1 *L 0.00111 *D NAND2_X2
*I *540:A3 I *C 7.92 16.1 *L 0.0012 *D NAND3_X2
*I *529:A I *C 16.345 13.44 *L 0.00108 *D OAI21_X2
*I *480:A3 I *C 11.91 16.1 *L 0.0012 *D NAND3_X2
*I *471:B2 I *C 8.8 15.54 *L 0.00126 *D AOI22_X2
*I *393:B2 I *C 6.71 12.74 *L 0.00147 *D AOI221_X2

*CAP
1 *3 0.00022674
2 *640:A 1.8959e-05
3 *637:A2 2.46497e-05
4 *626:A2 1.8959e-05
5 *619:A2 1.8959e-05
6 *540:A3 1.8959e-05
7 *529:A 1.8959e-05
8 *480:A3 1.8959e-05
9 *471:B2 1.8959e-05
10 *393:B2 1.8959e-05
11 *3:10 4.07874e-05
12 *3:11 4.07874e-05
13 *3:12 2.59902e-05
14 *3:13 2.7471e-05
15 *3:14 2.23121e-05
16 *3:15 2.6101e-05
17 *3:16 5.24493e-05
18 *3:17 6.81402e-05
19 *3:18 3.30398e-05
20 *3:19 5.23792e-05
21 *3:20 2.72827e-05
22 *3:21 3.43618e-05
23 *3:22 4.91184e-05
24 *3:23 4.56693e-05
25 *3:24 5.07617e-05
26 *3:25 2.41807e-05
27 *3:26 0.00024201
28 *3:27 2.11009e-05
29 *3:28 2.11009e-05
30 *3:29 1.10305e-05
31 *3:30 1.25113e-05
32 *3:31 2.10122e-05
33 *3:32 3.085e-05
34 *3:33 3.67806e-05
35 *3:34 3.67806e-05
36 *3:35 7.97025e-05
37 *3:36 7.97025e-05
38 *3:37 7.31883e-05
39 *3:38 7.31883e-05
40 *3:39 2.24894e-05
41 *3:40 1.74006e-05
42 *3:41 4.47387e-05
43 *3:42 4.47387e-05
44 *3:43 1.70609e-05
45 *3:44 1.70609e-05
46 *3:45 0.000109001
47 *3:46 0.000109001
48 *3:47 1.88298e-05
49 *3:48 2.06097e-05
50 *3:49 2.20905e-05
51 *3:50 5.59095e-05
52 *3:51 5.59095e-05
53 *3:52 1.88298e-05
54 *3:53 7.84506e-05
55 *3:54 2.80692e-05
56 *3:55 2.80692e-05
57 *3:56 7.84506e-05
58 *3:45 *146:26 8.18e-06
59 *3:46 *146:27 8.18e-06
60 *3:41 *146:22 6.805e-05
61 *3:42 *146:23 6.805e-05
62 *3:33 *146:14 3.343e-05
63 *3:34 *146:15 3.343e-05
64 *3:41 *146:37 2.075e-05
65 *3:42 *146:36 2.07500004e-05
66 *3:39 *270:15 8.18e-06
67 *3:40 *270:16 8.18e-06
68 *3:41 *270:27 4.418e-05
69 *3:42 *270:26 4.418e-05
70 *3:43 *270:13 1.672e-05
71 *3:44 *270:14 1.67200001e-05
72 *3:41 *7:36 0.00010925
73 *3:42 *7:37 0.000109249998
74 *3:33 *195:23 5.671e-05
75 *3:34 *195:24 5.67100004e-05
76 *3:33 *142:14 1.134e-05
77 *3:34 *142:15 1.134e-05
78 *3:27 *142:50 4.179e-05
79 *3:28 *142:51 4.17899988e-05
80 *3:21 *288:42 1.134e-05
81 *3:22 *288:39 1.134e-05
82 *3:22 *288:42 9.074e-05
83 *3:25 *288:39 9.074e-05
84 *3:26 *288:42 8.3e-07
85 *3 *288:39 8.3e-07
86 *3:27 *288:41 2.7e-06
87 *3:28 *288:40 2.7e-06
88 *3:29 *288:41 8.36e-06
89 *3:30 *288:40 8.36e-06
90 *3:18 *288:17 1.529e-05
91 *3:19 *288:18 1.529e-05
92 *3:19 *288:18 7.64e-06
93 *3:20 *288:38 7.64e-06
94 *3:12 *288:37 2.507e-05
95 *3:13 *288:36 2.507e-05
96 *3:12 *288:35 3.439e-05
97 *3:13 *288:34 3.43899976e-05
98 *3:22 *325:66 6.865e-05
99 *3:25 *325:67 6.865e-05
100 *3:55 *325:68 2.7e-06
101 *3:54 *325:69 2.70000217e-06
102 *3:51 *217:30 2.507e-05
103 *3:50 *217:12 2.507e-05
104 *3:51 *217:12 2.507e-05
105 *3:50 *217:13 2.50700014e-05
106 *3:27 *153:33 5.015e-05
107 *3:28 *153:34 5.015e-05
108 *3:27 *153:34 1.672e-05
109 *3:28 *153:57 1.672e-05
110 *3:29 *153:56 1.146e-05
111 *3:30 *153:55 1.14600012e-05

*RES
1 *3:54 *529:A 4.00013
2 *3:54 *3:55 3.49994
3 *3:56 *3:55 4.00013
4 *3:53 *3:56 2.64272
5 *3:46 *3:53 4.00013
6 *3:46 *3:45 2.51992
7 *3:37 *3:45 4.00013
8 *3:38 *3:37 2.78588
9 *3:52 *3:38 4.00013
10 *637:A2 *3:52 4.00013
11 *637:A2 *3:14 0.759942
12 *3:15 *3:14 1.03142
13 *3:36 *3:15 4.00013
14 *3:36 *3:35 2.49991
15 *3:41 *3:35 4.00013
16 *3:42 *3:41 10.1787
17 *3:51 *3:42 4.00013
18 *3:50 *480:A3 4.00013
19 *3:50 *3:51 3.0001
20 *3:43 *3:50 4.00013
21 *3:44 *3:43 1.35706
22 *3:40 *3:44 4.00013
23 *3:40 *3:39 0.420158
24 *3:24 *3:39 0.420158
25 *3:24 *3:23 0.629893
26 *3:33 *3:23 4.00013
27 *3:49 *540:A3 4.00013
28 *3:34 *3:33 8.5001
29 *3:48 *3:49 1.00003
30 *3:27 *3:34 4.00013
31 *3:48 *3:29 0.678532
32 *3:28 *471:B2 4.00013
33 *3:28 *3:27 5.5
34 *3:30 *626:A2 4.00013
35 *3:30 *3:29 1.49988
36 *3:21 *3:28 4.00013
37 *3:22 *3:30 4.00013
38 *3:22 *3:21 2.71413
39 *3:25 *3:22 5.4286
40 *3:18 *619:A2 4.00013
41 *3:11 *393:B2 4.00013
42 *3:19 *3:25 4.00013
43 *3:19 *3:18 2.49991
44 *3:11 *3:10 1.49988
45 *3:20 *3:19 1.00003
46 *3:31 *3:10 4.00013
47 *3:47 *640:A 4.00013
48 *3:12 *3:20 0.678532
49 *3:32 *3:31 0.678532
50 *3:16 *3:47 4.00013
51 *3:13 *3:12 5.99985
52 *3:32 *3:17 1.49988
53 *3:17 *3:16 2.03559
54 *3:26 *3:13 4.00013
55 *3:26 *3:17 0.678532
56 *3 *3:26 22.6071434
*END

*D_NET *4 0.00191983

*CONN
*P *4 I *C 21.945 30.24 *L 0
*I *636:A2 I *C 22.17 23.94 *L 0.00116 *D NOR2_X2
*I *628:A1 I *C 22.74 21.14 *L 0.00118 *D NAND2_X2
*I *627:A1 I *C 23.24 23.66 *L 0.000624 *D AND2_X4
*I *621:A2 I *C 22.86 21.7 *L 0.00111 *D NAND2_X2
*I *617:A2 I *C 23.12 23.94 *L 0.00116 *D NOR2_X2
*I *609:A2 I *C 21.34 18.9 *L 0.00116 *D NOR2_X2
*I *440:A3 I *C 21.22 18.34 *L 0.0012 *D NAND3_X2

*CAP
1 *4 0.00011943
2 *636:A2 1.89601e-05
3 *628:A1 1.89601e-05
4 *627:A1 1.89601e-05
5 *621:A2 1.89601e-05
6 *617:A2 1.89601e-05
7 *609:A2 1.89601e-05
8 *440:A3 1.89601e-05
9 *4:8 4.64702e-05
10 *4:9 2.86498e-05
11 *4:10 3.67991e-05
12 *4:11 5.30999e-05
13 *4:12 1.75417e-05
14 *4:13 1.75417e-05
15 *4:14 7.61708e-05
16 *4:15 6.54303e-05
17 *4:16 4.49898e-05
18 *4:17 4.49898e-05
19 *4:18 3.57812e-05
20 *4:19 3.5071e-05
21 *4:20 2.50097e-05
22 *4:21 0.000128139
23 *4:22 0.00013531
24 *4:23 5.23793e-05
25 *4:24 0.0001346
26 *4:25 2.65314e-05
27 *4:26 2.25093e-05
28 *4:27 3.45094e-05
29 *4:28 2.07089e-05
30 *4:29 1.40812e-05
31 *4:30 1.47915e-05
32 *4:31 5.23793e-05
33 *4:32 1.94495e-05
34 *4:12 *181:3 7.94e-05
35 *4:13 *181:4 7.93999993e-05
36 *4:12 *8:77 7.94e-05
37 *4:13 *8:80 7.93999993e-05
38 *4:8 *43:9 8.36e-06
39 *4:9 *43:7 8.36e-06
40 *4:10 *43:4 7.522e-05
41 *4:11 *43:3 7.5220001e-05

*RES
1 *4:21 *4 11.125
2 *4:21 *4:24 0.678566
3 *4:22 *636:A2 3.99998
4 *4:22 *4:24 11.5
5 *4:23 *4:22 3.99998
6 *4:23 *4:31 3.39283
7 *4:30 *617:A2 3.99998
8 *4:30 *4:31 3.99998
9 *4:29 *4:30 0.499931
10 *4:29 *4:32 0.678566
11 *4:14 *627:A1 3.99998
12 *4:14 *4:32 1.00004
13 *4:15 *4:14 6.49998
14 *4:16 *4:15 3.99998
15 *4:28 *621:A2 3.99998
16 *4:17 *4:16 1.35713
17 *4:27 *4:28 0.499931
18 *4:27 *4:17 3.99998
19 *4:26 *4:27 1.00004
20 *4:25 *4:26 0.678566
21 *4:8 *628:A1 3.99998
22 *4:8 *4:25 1.49997
23 *4:9 *4:8 2.50001
24 *4:12 *4:9 3.99998
25 *4:13 *4:12 4.74996
26 *4:10 *4:13 3.99998
27 *4:11 *609:A2 3.99998
28 *4:11 *4:10 4.50008
29 *4:20 *4:11 1.49997
30 *4:19 *4:20 0.678566
31 *4:18 *4:19 1.00004
32 *440:A3 *4:18 3.99998
*END

*D_NET *5 0.00155836

*CONN
*P *5 I *C 31.35 8.05 *L 0
*I *633:A2 I *C 25.21 7.7 *L 0.00116 *D NOR2_X2
*I *630:A1 I *C 24.95 9.94 *L 0.00118 *D NAND2_X2
*I *610:A2 I *C 23.88 8.12 *L 0.000647 *D AND2_X4
*I *350:A3 I *C 23.24 6.79 *L 0.00138 *D NOR3_X2
*I *343:B2 I *C 23.12 7 *L 0.00127 *D OAI21_X2

*CAP
1 *5 1.16101e-05
2 *633:A2 1.89593e-05
3 *630:A1 1.89593e-05
4 *610:A2 1.89593e-05
5 *350:A3 1.51694e-05
6 *343:B2 8.51063e-06
7 *5:6 5.45694e-05
8 *5:7 5.45694e-05
9 *5:8 4.39892e-05
10 *5:9 4.39892e-05
11 *5:10 0.00010646
12 *5:11 3.39012e-05
13 *5:12 2.62905e-05
14 *5:13 2.95606e-05
15 *5:14 1.19805e-05
16 *5:15 5.14894e-05
17 *5:16 5.07795e-05
18 *5:17 1.73413e-05
19 *5:18 9.42196e-05
20 *5:19 6.82101e-05
21 *5:20 7.39396e-05
22 *5:21 5.83008e-05
23 *5:22 5.83008e-05
24 *5:23 1.96204e-05
25 *5:24 1.41995e-05
26 *5:25 1.88293e-05
27 *5:18 *14:11 5.87e-05
28 *5:10 *14:9 5.87e-05
29 *5:18 *14:8 1.134e-05
30 *5:10 *14:7 1.134e-05
31 *5:10 *14:8 1.134e-05
32 *5:11 *14:7 1.134e-05
33 *5 *14 1.201e-05
34 *5:17 *14:10 1.201e-05
35 *5:19 *14 4.403e-05
36 *5:20 *14:10 4.403e-05
37 *5:13 *14:4 2.507e-05
38 *5:14 *14:5 2.50700021e-05
39 *5:10 *310:11 1.101e-05
40 *5:11 *310:9 1.101e-05
41 *5:12 *310:13 5.015e-05
42 *5:13 *310:10 5.015e-05
43 *5:13 *310:13 2.507e-05
44 *5:14 *310:10 2.507e-05
45 *5:15 *310:13 1.911e-05
46 *5:16 *310:10 1.91100005e-05

*RES
1 *5:15 *630:A1 4.00008
2 *5:17 *5 1.57152
3 *5:16 *5:15 2.50003
4 *5:19 *5:17 0.500076
5 *5:14 *633:A2 4.00008
6 *5:16 *5:12 0.678561
7 *5:20 *5:19 8.82147
8 *5:25 *610:A2 4.00008
9 *5:14 *5:13 1.50005
10 *5:13 *5:12 2.99993
11 *5:20 *5:18 0.999975
12 *5:23 *5:25 4.00008
13 *5:10 *5:13 4.00008
14 *5:10 *5:18 11.5357141
15 *5:23 *5:11 0.892779
16 *5:11 *5:10 3.85715
17 *5:21 *5:11 4.00008
18 *5:22 *5:21 1.25996
19 *5:8 *5:22 4.00008
20 *5:9 *5:8 2.92864
21 *5:6 *5:9 4.00008
22 *5:7 *5:6 1.99995
23 *350:A3 *5:7 4.00008
24 *350:A3 *5:24 0.760059
25 *343:B2 *5:24 1.03148
*END

*D_NET *6 0.000983596

*CONN
*P *6 I *C 31.35 9.17 *L 0
*I *638:A I *C 24.64 9.8 *L 0.00187 *D INV_X4
*I *633:A1 I *C 24.885 7.7 *L 0.00129 *D NOR2_X2
*I *630:A2 I *C 24.76 9.94 *L 0.00111 *D NAND2_X2

*CAP
1 *6 0.000202398
2 *638:A 1.89599e-05
3 *633:A1 1.89599e-05
4 *630:A2 1.89599e-05
5 *6:4 8.63893e-05
6 *6:5 5.25324e-05
7 *6:6 0.00021182
8 *6:7 2.62904e-05
9 *6:8 2.69983e-05
10 *6:9 6.01506e-05
11 *6:10 2.69983e-05
12 *6 *14:11 4.939e-05
13 *6:6 *14:9 4.939e-05
14 *6 *14 2.961e-05
15 *6:6 *14:10 2.961e-05
16 *6 *14:8 4.14e-06
17 *6:6 *14:7 4.14e-06
18 *6:4 *14:4 3.343e-05
19 *6:5 *14:5 3.34299993e-05

*RES
1 *6:5 *633:A1 4.0001
2 *6:6 *6 23.2857151
3 *6:5 *6:4 4.99995
4 *6:4 *6:6 4.0001
5 *6:10 *630:A2 4.0001
6 *6:8 *638:A 4.0001
7 *6:4 *6:9 1.50013
8 *6:9 *6:10 0.499924
9 *6:7 *6:8 0.499924
10 *6:7 *6:9 0.678646
*END

*D_NET *7 0.00542864

*CONN
*P *7 I *C 18.905 30.24 *L 0
*I *642:A I *C 22.29 23.8 *L 0.00187 *D INV_X4
*I *636:A1 I *C 21.845 23.94 *L 0.00129 *D NOR2_X2
*I *627:A2 I *C 23.43 23.52 *L 0.000647 *D AND2_X4
*I *606:A2 I *C 12.29 15.54 *L 0.00116 *D NOR2_X2
*I *604:A2 I *C 18.94 23.94 *L 0.00111 *D NAND2_X2
*I *549:A2 I *C 22.29 21.7 *L 0.00111 *D NAND2_X2
*I *534:A2 I *C 14.5 13.3 *L 0.00111 *D NAND2_X2
*I *458:B3 I *C 15.07 16.38 *L 0.000753 *D OAI33_X1
*I *457:A2 I *C 13.74 14.86 *L 0.000715 *D OAI22_X1
*I *444:B I *C 21.465 21.7 *L 0.00123 *D OAI211_X2

*CAP
1 *7 0.000250171
2 *642:A 1.89578e-05
3 *636:A1 1.89578e-05
4 *627:A2 1.89578e-05
5 *606:A2 1.89578e-05
6 *604:A2 1.89578e-05
7 *549:A2 1.89578e-05
8 *534:A2 1.89578e-05
9 *458:B3 1.89578e-05
10 *457:A2 1.89578e-05
11 *444:B 1.89578e-05
12 *7:11 5.33519e-05
13 *7:12 5.33519e-05
14 *7:13 0.00025959
15 *7:14 7.78116e-05
16 *7:15 7.78116e-05
17 *7:16 6.21693e-05
18 *7:17 6.21693e-05
19 *7:18 5.70318e-05
20 *7:19 4.57427e-05
21 *7:20 4.72994e-05
22 *7:21 4.62101e-05
23 *7:22 3.77809e-05
24 *7:23 3.77809e-05
25 *7:24 2.20395e-05
26 *7:25 5.00404e-05
27 *7:26 5.65802e-05
28 *7:27 0.00011419
29 *7:28 5.76101e-05
30 *7:29 3.92306e-05
31 *7:30 1.29488e-05
32 *7:31 3.57013e-05
33 *7:32 5.83587e-05
34 *7:33 5.83587e-05
35 *7:34 5.33519e-05
36 *7:35 5.33519e-05
37 *7:36 9.65674e-05
38 *7:37 2.79574e-05
39 *7:38 7.80295e-05
40 *7:39 3.91316e-05
41 *7:40 5.07019e-05
42 *7:41 1.99005e-05
43 *7:42 8.13489e-05
44 *7:43 8.13489e-05
45 *7:44 6.72989e-05
46 *7:45 5.93609e-05
47 *7:46 1.8831e-05
48 *7:47 1.8831e-05
49 *7:48 1.14792e-05
50 *7:49 1.14792e-05
51 *7:50 5.21874e-05
52 *7:51 4.42533e-05
53 *7:52 1.8831e-05
54 *7:53 3.49685e-05
55 *7:54 1.82567e-05
56 *7:55 1.8831e-05
57 *7:42 *226:8 6.648e-05
58 *7:43 *226:9 6.64799973e-05
59 *7:44 *184:34 0.00013089
60 *7:45 *184:33 0.000130890005
61 *7:42 *273:11 5.249e-05
62 *7:43 *273:9 5.249e-05
63 *7:44 *273:11 0.00011453
64 *7:45 *273:9 0.000114530005
65 *7:32 *179:8 4.09e-05
66 *7:33 *179:9 4.09e-05
67 *7:11 *179:12 2.507e-05
68 *7:12 *179:11 2.50700033e-05
69 *7:26 *44:27 3.272e-05
70 *7:27 *44:25 3.272e-05
71 *7:27 *44:27 3.272e-05
72 *7:28 *44:25 3.272e-05
73 *7:29 *44:8 1.672e-05
74 *7:30 *44:9 1.67200021e-05
75 *7:39 *134:50 0.00013611
76 *7:40 *134:51 0.00013611
77 *7:38 *213:16 0.00011701
78 *7:36 *213:17 0.00011701
79 *7:38 *276:63 7.94e-05
80 *7:36 *276:35 7.94e-05
81 *7:36 *276:35 0.00012059
82 *7:37 *276:36 0.000120590002
83 *7:38 *253:18 0.00012954
84 *7:36 *253:19 0.00012954
85 *7:36 *3:41 0.00010925
86 *7:37 *3:42 0.000109249998
87 *7:31 *242:8 4.776e-05
88 *7:29 *242:9 4.776e-05
89 *7:29 *242:8 5.253e-05
90 *7:30 *242:9 5.25300004e-05

*RES
1 *7:52 *444:B 4.00002
2 *7:17 *7:52 4.00002
3 *7:55 *627:A2 4.00002
4 *7:17 *7:16 3.39274
5 *7:22 *7:55 4.00002
6 *7:19 *549:A2 4.00002
7 *7:19 *7:16 4.00002
8 *7:23 *7:22 4.07129
9 *7:19 *7:18 5.50002
10 *7:18 *7:23 4.00002
11 *7:24 *642:A 4.00002
12 *7:18 *7:25 0.500002
13 *7:25 *7:24 0.500002
14 *7:53 *7:25 2.03565
15 *7:54 *636:A1 4.00002
16 *7:53 *7:54 1
17 *7:20 *7:54 4.00002
18 *7:21 *7:20 2.03565
19 *7:39 *7:21 0.500002
20 *7:13 *604:A2 4.00002
21 *7:13 *7 23.125
22 *7:40 *7:39 8.14294
23 *7:40 *7:13 4.00002
24 *7:41 *7:40 0.464363
25 *7:35 *534:A2 4.00002
26 *7:51 *7:41 4.00002
27 *7:35 *7:34 2.00001
28 *7:50 *7:51 1.05011
29 *7:48 *7:34 4.00002
30 *7:50 *7:42 0.419903
31 *7:48 *7:49 0.142908
32 *7:43 *7:42 3.99014
33 *7:33 *7:49 4.00002
34 *7:44 *7:43 0.419903
35 *7:33 *7:32 1.05011
36 *7:12 *458:B3 4.00002
37 *7:45 *7:44 4.61999
38 *7:47 *457:A2 4.00002
39 *7:31 *7:32 4.00002
40 *7:12 *7:11 3.00001
41 *7:38 *7:45 4.00002
42 *7:29 *7:47 4.00002
43 *7:29 *7:31 2.8571
44 *7:36 *7:11 4.00002
45 *7:36 *7:38 13.1073
46 *7:30 *7:29 3.14292
47 *7:37 *7:36 7.89276
48 *7:28 *7:30 4.00002
49 *7:26 *7:37 4.00002
50 *7:28 *7:27 1.05011
51 *7:27 *7:26 2.73007
52 *7:14 *7:27 4.00002
53 *7:15 *7:14 2.28582
54 *7:46 *7:15 4.00002
55 *606:A2 *7:46 4.00002
*END

*D_NET *8 0.0127793

*CONN
*P *8 I *C 31.35 14.91 *L 0
*I *639:A I *C 24.19 18.2 *L 0.00187 *D INV_X4
*I *635:A2 I *C 10.39 12.74 *L 0.00116 *D NOR2_X2
*I *625:A2 I *C 11.72 15.54 *L 0.00111 *D NAND2_X2
*I *623:A2 I *C 14.31 18.34 *L 0.00111 *D NAND2_X2
*I *614:A2 I *C 10.01 7.7 *L 0.00111 *D NAND2_X2
*I *598:B I *C 24.19 20.725 *L 0.00186 *D XNOR2_X2
*I *591:A2 I *C 20.77 18.9 *L 0.00116 *D NOR2_X2
*I *577:A2 I *C 17.54 18.9 *L 0.00116 *D NOR2_X2
*I *547:A2 I *C 19.56 9.66 *L 0.00067 *D OR2_X2
*I *529:B2 I *C 15.83 13.44 *L 0.00127 *D OAI21_X2
*I *502:A2 I *C 13.74 18.34 *L 0.00111 *D NAND2_X2
*I *470:B2 I *C 11.53 20.86 *L 0.00125 *D OAI22_X2
*I *468:B2 I *C 18.94 18.2 *L 0.00127 *D OAI21_X2
*I *443:A I *C 14.815 12.6 *L 0.00108 *D OAI21_X2
*I *432:A3 I *C 20.96 10.5 *L 0.0012 *D NAND3_X2
*I *414:C2 I *C 16.02 10.92 *L 0.000809 *D AOI222_X1
*I *397:B2 I *C 20.01 7.84 *L 0.00127 *D OAI21_X2

*CAP
1 *8 0.000167661
2 *639:A 1.89604e-05
3 *635:A2 1.89604e-05
4 *625:A2 1.89604e-05
5 *623:A2 1.89604e-05
6 *614:A2 1.89604e-05
7 *598:B 1.89604e-05
8 *591:A2 1.89604e-05
9 *577:A2 1.89604e-05
10 *547:A2 1.89604e-05
11 *529:B2 2.74908e-05
12 *502:A2 1.89604e-05
13 *470:B2 1.89604e-05
14 *468:B2 1.89604e-05
15 *443:A 1.89604e-05
16 *432:A3 1.89604e-05
17 *414:C2 1.89604e-05
18 *397:B2 1.89604e-05
19 *8:18 6.8719e-05
20 *8:19 6.8719e-05
21 *8:20 3.4981e-05
22 *8:21 3.4981e-05
23 *8:22 3.55295e-05
24 *8:23 3.55295e-05
25 *8:24 3.27896e-05
26 *8:25 4.74402e-05
27 *8:26 2.407e-05
28 *8:27 4.36816e-05
29 *8:28 3.69994e-05
30 *8:29 4.50705e-05
31 *8:30 4.57811e-05
32 *8:31 1.66177e-05
33 *8:32 1.66177e-05
34 *8:33 2.92607e-05
35 *8:34 2.80204e-05
36 *8:35 1.96792e-05
37 *8:36 1.89712e-05
38 *8:37 6.12424e-05
39 *8:38 6.42417e-05
40 *8:39 6.66492e-05
41 *8:40 1.90307e-05
42 *8:41 4.59406e-05
43 *8:42 4.76996e-05
44 *8:43 6.77814e-05
45 *8:44 6.77814e-05
46 *8:45 8.76118e-05
47 *8:46 8.93709e-05
48 *8:47 6.04101e-05
49 *8:48 3.30895e-05
50 *8:49 2.33188e-05
51 *8:50 2.15598e-05
52 *8:51 3.674e-05
53 *8:52 3.04091e-05
54 *8:53 3.04091e-05
55 *8:54 2.81393e-05
56 *8:55 3.28409e-05
57 *8:56 2.33405e-05
58 *8:57 2.63398e-05
59 *8:58 2.87311e-05
60 *8:59 2.87311e-05
61 *8:60 0.00017708
62 *8:61 2.65208e-05
63 *8:62 2.65208e-05
64 *8:63 2.4478e-05
65 *8:64 2.4478e-05
66 *8:65 5.33388e-05
67 *8:66 5.33388e-05
68 *8:67 5.45683e-05
69 *8:68 5.31983e-05
70 *8:69 7.58092e-05
71 *8:70 0.000139751
72 *8:71 0.00011794
73 *8:72 8.22212e-05
74 *8:73 3.76398e-05
75 *8:74 5.25498e-05
76 *8:75 4.45598e-05
77 *8:76 5.53816e-05
78 *8:77 9.69502e-05
79 *8:78 2.68207e-05
80 *8:79 2.68207e-05
81 *8:80 5.09907e-05
82 *8:81 1.74094e-05
83 *8:82 7.68819e-05
84 *8:83 7.53985e-05
85 *8:84 2.42997e-05
86 *8:85 2.42997e-05
87 *8:86 5.29497e-05
88 *8:87 5.29497e-05
89 *8:88 1.31104e-05
90 *8:89 1.01111e-05
91 *8:90 0.00011968
92 *8:91 0.00011968
93 *8:92 1.13892e-05
94 *8:93 1.13892e-05
95 *8:94 6.65898e-05
96 *8:95 6.65898e-05
97 *8:96 4.80509e-05
98 *8:97 1.70798e-05
99 *8:98 1.97008e-05
100 *8:99 1.7939e-05
101 *8:100 0.00012499
102 *8:101 0.00012499
103 *8:102 3.49404e-05
104 *8:103 6.25312e-05
105 *8:104 4.98585e-05
106 *8:105 2.22704e-05
107 *8:106 5.45683e-05
108 *8:107 5.45683e-05
109 *8:108 0.000101579
110 *8:109 0.000101579
111 *8:110 2.13301e-05
112 *8:111 2.38403e-05
113 *8:112 1.59179e-05
114 *8:113 6.35391e-05
115 *8:114 6.35391e-05
116 *8:115 3.91205e-05
117 *8:116 4.04905e-05
118 *8:117 2.39511e-05
119 *8:118 4.70079e-05
120 *8:119 1.66799e-05
121 *8:120 2.68802e-05
122 *8:121 2.51211e-05
123 *8:122 2.18813e-05
124 *8:123 2.18813e-05
125 *8:124 2.87095e-05
126 *8:125 2.07113e-05
127 *8:126 4.53515e-05
128 *8:127 3.73507e-05
129 *8:128 7.26613e-05
130 *8:129 5.98211e-05
131 *8:130 3.88206e-05
132 *8:131 3.88206e-05
133 *8:132 1.90199e-05
134 *8:133 2.20191e-05
135 *8:134 5.40413e-05
136 *8:135 3.12602e-05
137 *8:136 2.82582e-05
138 *8:137 3.22897e-05
139 *8:138 3.22897e-05
140 *8:139 5.09583e-05
141 *8:140 5.09583e-05
142 *8:141 0.000142958
143 *8:142 7.26802e-05
144 *8:143 7.02781e-05
145 *8:144 2.55183e-05
146 *8:145 1.88307e-05
147 *8:146 3.33813e-05
148 *8:147 2.31108e-05
149 *8:148 1.84308e-05
150 *8:149 1.81309e-05
151 *8:150 1.74797e-05
152 *8:143 *134:71 5.295e-05
153 *8:141 *134:72 5.295e-05
154 *8:141 *134:71 5.065e-05
155 *8:142 *134:72 5.06500012e-05
156 *8:143 *236:55 0.00018816
157 *8:141 *236:56 0.00018816
158 *8:141 *236:55 0.00012271
159 *8:142 *236:56 0.00012271
160 *8:86 *236:22 1.78e-06
161 *8:87 *236:23 1.77999218e-06
162 *8:141 *164:37 2.449e-05
163 *8:142 *164:38 2.449e-05
164 *8:98 *164:15 4.537e-05
165 *8:99 *164:16 4.53699983e-05
166 *8:130 *213:35 7.363e-05
167 *8:131 *213:46 7.363e-05
168 *8:132 *213:28 1.037e-05
169 *8:133 *213:29 1.03700017e-05
170 *8:130 *242:14 0.00013089
171 *8:131 *242:15 0.00013089
172 *8:20 *242:18 1.146e-05
173 *8:21 *242:17 1.14600093e-05
174 *8:102 *127:33 1.636e-05
175 *8:103 *127:32 1.636e-05
176 *8:103 *127:33 8.181e-05
177 *8:104 *127:32 8.181e-05
178 *8:104 *127:33 2.454e-05
179 *8:105 *127:32 2.45399967e-05
180 *8:103 *277:40 7.363e-05
181 *8:104 *277:41 7.363e-05
182 *8:135 *277:78 6e-07
183 *8:136 *277:77 6e-07
184 *8:88 *277:45 2.209e-05
185 *8:89 *277:46 2.20900019e-05
186 *8:94 *163:14 5.727e-05
187 *8:95 *163:15 5.7269999e-05
188 *8:90 *142:39 5.249e-05
189 *8:91 *142:40 5.24900012e-05
190 *8:90 *223:18 6.545e-05
191 *8:91 *223:17 6.545e-05
192 *8:92 *223:24 1.79e-06
193 *8:93 *223:20 1.78999274e-06
194 *8:90 *211:16 7.363e-05
195 *8:91 *211:15 7.3630001e-05
196 *8:77 *4:12 7.94e-05
197 *8:80 *4:13 7.93999993e-05
198 *8:77 *94:22 9.074e-05
199 *8:80 *94:21 9.074e-05
200 *8:81 *94:11 8.36e-06
201 *8:74 *94:12 8.35999492e-06
202 *8:72 *288:27 9.074e-05
203 *8:73 *288:28 9.074e-05
204 *8:54 *288:53 1.672e-05
205 *8:55 *288:13 1.67199951e-05
206 *8:69 *302:15 3.403e-05
207 *8:70 *302:14 3.403e-05
208 *8:71 *302:14 6.209e-05
209 *8:72 *302:12 6.209e-05
210 *8:72 *302:14 6.268e-05
211 *8:73 *302:12 6.268e-05
212 *8:22 *302:6 3.82e-06
213 *8:23 *302:7 3.8199899e-06
214 *8:122 *151:34 1.672e-05
215 *8:123 *151:23 1.672e-05
216 *8:128 *151:15 4.537e-05
217 *8:129 *151:16 4.53699994e-05
218 *8:61 *311:21 1.552e-05
219 *8:62 *311:19 1.552e-05
220 *8:47 *311:4 0.00010865
221 *8:48 *311:5 0.000108650003
222 *8 *21 1.201e-05
223 *8:60 *21:10 1.201e-05
224 *8 *21:9 0.0001093
225 *8:60 *21:7 0.000109299997
226 *8:56 *119:3 6.805e-05
227 *8:57 *119:4 6.805e-05
228 *8:58 *119:8 1.672e-05
229 *8:59 *119:7 1.672e-05
230 *8:58 *119:6 3.82e-06
231 *8:59 *119:5 3.81999754e-06
232 *8:51 *217:14 6.805e-05
233 *8:47 *217:15 6.805e-05
234 *8:47 *217:14 8.95e-06
235 *8:48 *217:15 8.95e-06
236 *8:49 *217:7 1.037e-05